40   
   
Ga 0.0269761255360291 3.6779756862995328 14.928665594297021
Ga 1.6247879282622153 2.738514184998208 2.598467950256277
Ga 3.181997718262215 -0.0406182550017918 2.5995599952562776
In -1.560765711737785 2.7790428499982083 2.595055235256277
In 3.2012642012017563 1.7985151437022595 5.845153520446698
In -0.0062228629877851 -0.0001567825017918 4.543257701506278
In -1.5441661700482436 4.61810905620226 7.787759181696698
In 0.0130436199517563 1.8389766162022596 7.788851226696697
In 1.6413874699517566 4.57758039120226 7.791171896696698
In 0.0403108317860291 3.6783116487995327 5.193113488047024
In 0.0323100080360291 3.6781100712995327 11.034444751797023
In 3.1959303187017563 1.7983807587022596 9.739374362946698
In 4.7724064967860285 0.8583817737995325 12.986059933047022
In 3.215196706786029 3.6375142137995327 12.98496788804702
Al 1.5868528567860292 0.8989104387995325 12.982647218047022
In -0.0142236867377851 -0.0003583600017918 10.384588965256276
O 4.7251358025017565 0.8963794767022595 1.3292988663466985
O 3.230214404101757 3.56434661910226 1.3282505031466985
O 1.6670043081017565 0.9352869951022594 1.3260226599466984
O -0.0194508915877851 -0.0004900573017918 14.200925390906276
O 0.0455380366360291 3.6784433460995327 1.3767770623970237
O 1.6720587174017565 2.70051642570226 14.255229017046698
O 3.166980115801756 0.0325492833022593 14.256277380246699
O 4.730190211801756 2.66160890730226 14.258505223446699
O 1.5561816093360294 2.7759744042995327 6.518590097697024
O 0.0612602109360296 5.4439415466995325 6.517541734497024
O -1.501949885063971 2.814881922699533 6.515313891297024
O 3.2040378201017563 1.7985850239022594 3.8201586823466975
O -0.0089964818877851 -0.0002266627017918 6.568252539606278
O -1.4755599457639712 4.580648893299533 3.867636878397023
O 0.019361452636029 1.9126817508995329 3.868685241597024
O 1.5825715486360294 4.541741374899534 3.870913084797024
O -1.612772489187785 4.655569275498208 11.707881484906276
O 0.006725692412215 1.7652715378982082 11.709017211706275
O 1.7002032964122156 4.613419463898208 11.711430708506276
O 0.0350836269360291 3.6781799514995326 9.009449913697022
O 3.1931566998017566 1.7983108785022597 11.764369201046698
O 4.841012815712215 0.8209215544982083 9.065937785606279
O 3.221514634112216 3.711219292098209 9.064802058806276
O 1.528037030112215 0.8630713660982082 9.062388562006278
