80   
   
Ga 1.71061102865 7.63269719165 6.64307839843
Ga 6.93666801865 7.60322011165 6.61384677843
Ga 3.61356489169 1.3197651819499998 1.86238100793
Ga 8.83962188169 1.29028810195 1.83314938793
Ga 1.01068085689 3.14393999457 1.87188605431
Ga 6.23673784689 3.11446291457 1.84265443431
Ga 4.31349506345 5.80852237903 6.63357335205
Ga 9.53955205345 5.77904529903 6.60434173205
Ga 0.96850902701 5.88882789666 -0.02188039296
Ga 6.1945660170100005 5.85935081666 -0.05111201296
Ga 4.33455711799 3.05291003334 4.75481543296
Ga 9.56061410799 3.02343295334 4.72558381296
Ga 1.71228812459 1.4194491963 4.774086592
Ga 6.93834511459 1.3899721162999998 4.744854972000001
Ga 3.64435613041 7.5495081337 9.533783388
Ga 8.870413120409998 7.520031053699999 9.504551768
Ga 0.93300870921 0.29096819046 9.5596900686
Ga 6.15906569921 0.26149111046 9.5304584486
Ga 4.42352838957 8.67793470074 4.72903004152
Ga 9.64958537957 8.64845762074 4.69979842152
Ga 1.7884030505700002 4.75132690434 4.75477820792
Ga 7.01446004057 4.72184982434 4.72554658792
Ga 3.56813404821 4.21757598686 9.5339419022
Ga 8.794191038209998 4.18809890686 9.5047102822
In 3.62989956642 1.40757390167 7.511477910910002
Ga 8.85595655642 1.37809682167 7.482246290910002
In 1.70392041372 7.54978796393 2.71746978465
In 6.929977403720001 7.52031088393 2.68823816465
In 4.30760797012 5.86893483627 2.70755992531
In 9.53366496012 5.83945775627 2.67832830531
Ga 1.02621201002 3.08842702933 7.52138777025
In 6.25226900002 3.05894994933 7.49215615025
O 4.41384374384 5.99250837727 8.509257646550001
O 9.63990073384 5.963031297270001 8.48002602655
O 0.93133479562 2.97062400113 3.74957625629
O 6.157391785620001 2.94114692113 3.72034463629
O 3.5362276344200003 1.50475340091 3.73905917751
O 8.762284624419998 1.4752763209100002 3.70982755751
O 1.80895090504 7.45837897749 8.51977472533
O 7.03500789504 7.42890189749 8.490543105330001
O 2.77783253184 0.08226398339 6.0070597694700005
O 8.003889521839998 0.05278690339 5.9778281494700005
O 2.53905676554 8.86649655181 1.19620848505
O 7.76511375554 8.83701947181 1.16697686505
O 5.12787917234 4.53419225239 1.19378766547
O 10.35393616234 4.50471517239 1.16455604547
O 0.18901012504 4.41456828281 6.00948058905
O 5.41506711504 4.38509120281 5.980248969050001
O 0.12640582886 7.41079098257 1.13720488357
O 5.35246281886 7.38131390257 1.10797326357
O 5.18962621876 1.5375340422299997 5.91286441191
O 10.41568320876 1.5080569622299995 5.88363279191
O 2.58433161916 2.93174379997 5.92358389717
O 7.81038860916 2.90226671997 5.89435227717
O 2.73170042846 6.01658122483 1.12648539831
O 7.957757418459998 5.98710414483 1.09725377831
O 5.15584401196 7.468314689289999 6.05926918073
O 10.38190100196 7.43883760929 6.03003756073
O 0.1620096914 1.48093579511 1.3163479027100002
O 5.3880666814 1.45145871511 1.2871162827100002
O 2.7835756034 2.98899015781 1.29743095501
O 8.0096325934 2.95951307781 1.2681993350100005
O 2.53427809996 5.96026032659 6.0781861284300005
O 7.76033508996 5.93078324659 6.0489545084300005
O 1.94154263365 1.53572367722 8.27703990552
O 7.16759962365 1.50624659722 8.247808285519998
O 3.40074268787 7.42593885358 3.46474751056
O 8.626799677869998 7.396461773579999 3.43551589056
O 0.7796789768700001 6.00746054398 3.48341145016
O 6.00573596687 5.97798346398 3.45417983016
O 4.56260634465 2.95420198682 8.258375965920001
O 9.78866333465 2.9247249068200003 8.22914434592
O 4.41725416274 0.00881222643 8.592978510870001
O 9.64331115274 -0.02066485357 8.56374689087
O 0.92867447026 8.95470122357 3.799904481130001
O 6.154731460260001 8.925224143569999 3.77067286113
O 3.51669335546 4.47907523919 3.797888474510001
O 8.742750345460001 4.44959815919 3.768656854510001
O 1.82923527754 4.48443821081 8.59499451749
O 7.05529226754 4.45496113081 8.56576289749
