80   
   
In 7.1630029125000005 2.3854750875 7.1434852625
In 2.3861446075 7.1464400375 7.1596522175
Ga 7.1464148425000005 7.161727592499999 2.3816178625
Al 7.1552410125 7.1544183075 7.1506094325
In 2.3773184375 7.1537493225 2.3906606475
Al 7.154176742500001 2.3927843725 2.3744936925
Al 2.3939065075 2.3774968174999995 7.1525280475
Al 2.3850803375 2.3848061025 2.3835364775
Al 7.1552366867 4.44931320104 4.76206711894
In 2.3695522117 9.217587436039999 0.00924250394
Al 7.145354898300001 5.10519876396 -0.00595556394
Ga 4.76567954544 7.154580846379999 4.44634361324
In 0.01317121044 2.37035007138 9.21725379824
In -0.00221650044 7.145608513619999 5.10396925176
In 4.4502752044600005 4.76541504014 7.15218364938
Ga 9.21830733946 0.01175937514 2.36702512438
Al 5.106634215540001 -0.00244313514 7.14382966062
Al 2.3850846633 5.08991120896 4.77207879106
Ga 7.1531167983 0.33625554396 -0.01307973394
In 2.3773141117 4.44864421604 0.00211833394
Al 4.77464180456 2.38464356362 5.0878022967600005
Ga -0.01104267044 7.152917798619999 0.33497768176
Al 0.00434504044 2.37765935638 4.44826222824
In 5.090046145540001 4.77380936986 2.38196226062
Ga 0.33753781054 -0.01042140514 7.15287244562
Al 4.449210934460001 0.00378110514 2.37606790938
In 2.3928465633 0.32096798896 4.76495462106
Al 4.76581563456 2.39195284862 0.31881072676
In 0.32094974054 4.76583109986 2.39100504562
Ga 7.1474747867 9.21825642104 4.76919128894
Al 4.774505715439999 7.147271561379998 9.21533518324
Ga 9.21937160946 4.77339331014 7.14314086438
O 5.91918967144 3.72961687092 6.25127498738
O 3.62558013696 8.491982230159998 8.0558805245
O 8.38690944364 5.820334100239999 1.4806873073
O 5.91912412296 5.80612782368 8.04752195582
O 6.2543317923 5.91824122217 3.72632124462
O 8.060063922579998 3.62483902109 8.48849312586
O 1.48504740942 8.386926578309998 5.81834892254
O 8.0513602507 5.91805420343 5.80220148198
O 3.73019422671 6.254028998379999 5.91582499997
O 8.49213559571 8.058638375899998 3.62034494929
O 5.82187176769 1.4847634759 8.38463379211
O 5.80660178489 8.05063017482 5.91456103363
O 3.62113167856 5.80960753908 3.2828709226199995
O 5.914741213039999 1.0472421798399998 1.4782653855
O 1.15341190636 3.71889030976 8.0534586027
O 3.62119722704 3.73309658632 1.48662395418
O 3.2859895577 3.62098318783 5.80782466538
O 1.48025742742 5.91438538891 1.04565278414
O 8.055273940579998 1.1522978316899997 3.71579698746
O 1.4889610993 3.62117020657 3.73194442802
O 5.81012712329 3.2851954116199997 3.61832091003
O 1.0481857542900002 1.4805860341 5.91380096071
O 3.71844958231 8.054460934099998 1.14951211789
O 3.73371956511 1.48859423518 3.61958487637
O 1.13350519644 8.49789110592 1.49845037238
O 8.39361227196 3.73832656516 3.2707219995
O 3.63440110864 1.03610332524 6.2515974923
O 1.14896344796 1.03651561868 3.28044900082
O 1.5018234573 1.13401044717 8.497231429619998
O 3.2743794475799994 8.393113256089999 3.73566851086
O 6.25307954442 3.63327091331 1.03319039754
O 3.2811995757 1.1484419984299998 1.03512852698
O 8.498226361709998 1.5003733333799998 1.13066647497
O 3.73962726071 3.2744076009 8.39125513429
O 1.0361872926900002 6.253037710899999 3.63180917711
O 1.03644110989 3.28101796982 1.14748807863
O 8.406816153560001 1.04133330408 8.03569553762
O 1.14670907804 5.80089784484 6.2634239105
O 5.90592024136 8.503121084759998 3.2825484177
O 8.391357902040001 8.502708791319998 6.25369690918
O 8.0384978927 8.405213962829999 1.03691448038
O 6.265941902420001 1.1461111539099995 5.79847739914
O 3.28724180558 5.90595349669 8.50095551246
O 6.2591217743000005 8.39078241157 8.49901738302
O 1.04209498829 8.038851076619999 8.40347943503
O 5.80069408929 6.264816809099999 1.14289077571
O 8.50413405731 3.2861866990999995 5.90233673289
O 8.50388024011 6.25820644018 8.38665783137
