80   
   
Ga 7.093077195 2.36255016 7.068590489999999
Al 2.3627956350000003 7.07381555 7.087583704999999
In 7.07294248 7.09149676 2.355661705
Al 7.08377799 7.08336963 7.0765011
Al 2.351960125 7.08194268 2.36674431
Al 7.0822416850000005 2.37067729 2.347751095
In 2.3720948400000004 2.35299608 7.079673095
Al 2.36125933 2.36112321 2.3588337
Al 7.08364218344 4.40600773604 4.71158817602
Al 2.3425251134400003 9.12540025604 0.00974199602
Ga 7.07154198156 5.05616631396 -0.00817537602
In 4.71713224282 7.08320879984 4.40060562614
In 0.01628460282 2.3447081198400004 9.124617016139998
Al -0.00237648282 7.0725494301600005 5.05372238886
Ga 4.406909614860001 4.71753317756 7.078840714639999
Al 9.12635566486 0.01439491756 2.33900810464
Al 5.05826242014 -0.00198693756 7.06942287036
Al 2.36139513656 5.03848510396 4.72374662398
Ga 7.080841186560001 0.33534684396 -0.01608598602
Ga 2.3518243184400003 4.40458078604 0.00183138602
Ga 4.727905077180001 2.36128404016 5.03472917386
Al -0.01321199282 7.080676560160001 0.33288299386
Ga 0.00544909282 2.35283524984 4.40377762114
Ga 5.038127705140001 4.7269596624400005 2.35649408536
In 0.3372800651400001 -0.01154101756 7.080505475359999
Ga 4.405373309860001 0.00484083756 2.35009070964
Al 2.37069434156 0.3176656339600001 4.71583601398
In 4.71706956718 2.36941117016 0.31388977886
Al 0.3171453501400001 4.7174055824400005 2.36757669036
In 7.07434297844 9.12682720604 4.71949878602
Ga 4.72796775282 7.07508166984 9.12144502114
In 9.12789196986 4.72708725756 7.06775810964
O 5.86096233101 3.69286509018 6.18618495306
O 3.5896657473700007 8.4060428009 7.974450825979998
O 8.300983192229998 5.7642376307 1.46303162942
O 5.860982029390001 5.74808657822 7.964669591539998
O 6.1908712043800005 5.859995680100001 3.68696518553
O 7.98125969826 3.589467538580001 8.39984042825
O 1.46977754514 8.301724295820001 5.76044728395
O 7.97068485222 5.8600445855 5.74108410227
O 3.69304367705 6.191108794000001 5.855552973009999
O 8.40532848617 7.97959201712 3.58144184777
O 5.766325654029999 1.4702287952800002 8.297646832629999
O 5.74789548275 7.970302493600002 5.85369534659
O 3.5840749889900003 5.75162774982 3.2491498469399995
O 5.85537157263 1.0384500391 1.46088397402
O 1.14405412777 3.6802552093 7.972303170579998
O 3.5840552906100007 3.69640626178 1.4706652084599998
O 3.25416611562 3.5844971599000006 5.74836961447
O 1.4637776217400005 5.85502530142 1.0354943717499998
O 7.975259774859999 1.14276854418 3.67488751605
O 1.4743524677800002 3.5844482545000003 3.69425069773
O 5.75199364295 3.2533840460000003 3.57978182699
O 1.03970883383 1.46490082288 5.85389295223
O 3.67871166597 7.97426404472 1.1376879673699998
O 3.69714183725 1.4741903464 3.58163945341
O 1.11984526101 8.412257610180001 1.48433877306
O 8.30911179737 3.7029045409 3.2346182159799994
O 3.6001355522300003 1.0257369507000005 6.18704301942
O 1.13846336939 1.02584015822 3.24700219154
O 1.4900235643800002 1.1214950001 8.410976575529999
O 3.24014262826 8.308860058580002 3.69799424825
O 6.1892235951400005 3.5985860358200004 1.02061467395
O 3.24816619222 1.1377981655 1.0234167022699998
O 8.412489727049998 1.4879705340000002 1.11572036301
O 3.70448084617 3.24109133712 8.30545323777
O 1.02520858403 6.189621315280001 3.59580065263
O 1.0253768227500002 3.2480560736000004 1.1360279465899998
O 8.32519205899 1.0322352298200002 7.950996026939999
O 1.13592552263 5.7415882991 6.20071658402
O 5.844901767770001 8.418755889300002 3.24829178058
O 8.30657395061 8.418652681780001 6.18833260846
O 7.95501375562 8.322997839900001 1.02435822447
O 6.20489469174 1.13563278142 5.737340551749999
O 3.25581372486 5.84590680418 8.414720126049998
O 6.1968711277800015 8.306694674500001 8.41191809773
O 1.03254759295 7.956522306000002 8.319614436989998
O 5.74055647383 6.203401502880001 1.1298815622299998
O 8.41982873597 3.25487152472 5.839534147369999
O 8.41966049725 6.196436766400001 8.29930685341
