40   
   
Al 0.0195936219791445 3.635878667205537 14.537555313160263
Ga 1.57136983505542 2.713948066736187 2.522461067256514
In 3.1344780650554203 0.000582786736187 2.5259683722565134
In -1.56033722994458 2.7168412967361872 2.5259851172565138
Al 3.133537297965436 1.8050525285582768 -0.0070369366667783
In 0.00484925005542 0.006083029236187 4.4266117010065145
In -1.5529649970345647 4.531739088558276 7.581456923333221
In 0.0101432329654352 1.8183738085582768 7.584964228333223
In 1.5787420679654358 4.5288458585582765 7.5779328733332205
In 0.0092023719791445 3.622843604705537 5.051958919410264
Al 0.0154371219791445 3.6306646422055366 10.743316755660263
Al 3.143928547965436 1.8180875910582768 9.47855945708322
In 4.7123306669791445 0.9170131447055364 12.640419289410264
In 3.1492224369791444 3.630378424705536 12.636911984410265
In 1.5806236019791449 0.9199063747055364 12.643943339410264
Al 0.01108400005542 0.013904066736187 10.117969537256512
O 4.637291402365436 0.9376225738582766 1.2829988144832218
O 3.1367075015654358 3.5424532426582767 1.2796318016832218
O 1.6308526199654352 0.9404000746582768 1.2863819024832217
O 0.01515737005542 0.019013811236187 13.836323323606514
O 0.0051290019791445 3.617733860205537 1.3336051330602643
O 1.6464091935654352 2.693338583258277 13.879881542183222
O 3.146993094365435 0.0885079144582766 13.883248554983222
O 4.652847975965433 2.690561082458277 13.876498454183222
O 1.5129564763791448 2.7554136500055364 6.341994670560264
O 0.0123725755791449 5.360244318805536 6.338627657760264
O -1.4934823060208555 2.758191150805537 6.345377758560264
O 3.137610667965436 1.8101622730582765 3.7113168496832216
O 0.00701063005542 0.008794322236187 6.399615750906515
O -1.4945517324208557 4.490273559405536 3.761923168260264
O 0.0060321683791448 1.8854428906055365 3.765290181060264
O 1.511887049979145 4.487496058605537 3.758540080260264
O -1.6113783555445802 4.573204672036185 11.400990678406512
O 0.0142542036554199 1.751304780836187 11.404638275606514
O 1.64559699205542 4.5701957128361865 11.397325666406514
O 0.0132757419791445 3.6279533492055367 8.770312705760263
O 3.146089927965436 1.8207988840582765 11.45156350698322
O 4.77074402565542 0.8755475614361871 8.820885686106514
O 3.14511146645542 3.697447452636187 8.817238088906516
O 1.51376867805542 0.878556520636187 8.824550698106515
