40   
   
In 1.00363827982 6.2401062858000005 -0.03603192935
Al 4.61219313018 3.2642203692 5.01276718935
In 1.82165762354 1.5214211988000002 5.03749332731
In 3.79417378646 7.9829054562 -0.06075806731
Al 3.86923102478 1.52418084502 7.927370782499999
In 1.78083637414 8.00812062412 2.85273146006
In 4.56848090058 6.241563460020001 2.8449891324
In 1.08158649834 3.2907380091200005 7.935113110159999
In 1.78861857264 8.10399497452 6.997724053749999
In 3.85071280188 1.4195339048199995 1.96250700961
In 1.0631932908 3.33784701852 1.96951490223
In 4.57613808372 6.18568186082 6.990716161129999
In 0.9969562101 0.33242581089 10.0934378535
In 4.67840049074 9.22053998089 4.97347205562
In 1.88586473834 5.04964561689 5.00994915422
In 3.7894919625 4.50332017489 10.0569607549
O 4.682814016819999 6.384847768880001 8.97088209898
O 0.97989803306 3.1577858615800007 3.95262397686
O 3.76773008254 1.6188626218800002 3.94377999664
O 1.89498196734 7.92377100858 8.9797260792
O 2.96613948346 0.11350408684 6.3419314703
O 2.6650802281799995 9.40339661354 1.24328581322
O 5.45041197046 4.82935438184 1.2491305338
O 0.18080774118 4.68754631854 6.33608674972
O 5.46658366266 7.946203154930002 6.38045537963
O 0.16570965142 1.5715748044300002 1.38674902181
O 2.9561357696199995 3.1815875189300007 1.36266551451
O 2.67615754446 6.336190440430001 6.40453888693
O 0.0973516605 7.84971094726 1.18490833306
O 5.53291373786 1.66640996736 6.23854262342
O 2.7450191807 3.1294552322600007 6.24775382116
O 2.88524621766 6.38666568236 1.17569713532
O 2.06670912774 1.65288422026 8.73604482127
O 3.59278211482 7.88711763326 3.64149990081
O 0.8024341312200001 6.371952387260001 3.66512438621
O 4.85705711134 3.1680494662600003 8.71242033587
O 4.717059507219999 0.04934450985 9.07208960809
O 0.94648756678 9.49397143315 3.99296200391
O 3.7316942937 4.76817325185 3.99954115953
O 1.9318527803 4.77514269115 9.06551045247
