80   
   
Al -0.0693369825 -0.0438538325 5.9191187775
Al -0.2080109475 -0.1315614975 17.757356332499995
Al 4.4757933225 2.8545294625 5.9925855075
In 4.337119357500001 2.7668217975 17.830823062499995
Al 3.0400421575000003 0.0932355375 5.9563308225
Al 2.9013681925 0.0055278725 17.7945683775
Al 1.3664141825 2.7174400925 5.9553734625
Al 1.2277402175 2.6297324275 17.793611017499998
Al 0.0 0.0 0.0
Al -0.138673965 -0.087707665 11.838237555
Al 4.545130305000001 2.898383295 0.07346673
In 4.406456340000001 2.81067563 11.911704285
Ga 3.10937914 0.13708937 0.037212045
Al 2.970705175 0.049381705 11.8754496
Al 1.435751165 2.761293925 0.036254685
Ga 1.2970772000000002 2.67358626 11.874492239999999
Al -0.113952832023 1.7730597271339998 2.9713239871725
Al -0.2526267970229999 1.685352062134 14.8095615421725
Al -1.787580807023 4.397264282134 2.9703666271725
In -1.926254772023 4.3095566171340005 14.8086041821725
Al 2.995426307977 1.910149097134 3.0085360321725
Al 2.856752342977 1.822441432134 14.8467735871725
Ga 1.3217983329769998 4.534353652134 3.0075786721725
Al 1.1831243679769996 4.4466459871340005 14.845816227172499
Ga 1.411030032023 0.9005265328659999 8.9031682528275
Ga 1.272356067023 0.8128188678659999 20.741405807827494
Al -0.262597942977 3.524731087866 8.9022108928275
Al -0.401271907977 3.437023422866 20.7404484478275
Al 4.520409172023 1.037615902866 8.940380297827499
Ga 4.3817352070230005 0.949908237866 20.778617852827495
Al 2.846781197023 3.661820457866 8.9394229378275
Al 2.708107232023 3.574112792866 20.777660492827493
O -0.1366814948864999 1.7586844408404998 4.911611122437
O -0.2753554598865 1.6709767758405 16.749848677436994
O -1.8103094698865 4.3828889958405 4.910653762437
O -1.9489834348865 4.2951813308405 16.748891317437
O 2.9726976451135 1.8957738108405 4.948823167436999
O 2.8340236801135 1.8080661458405 16.787060722436994
O 1.2990696701134996 4.5199783658405 4.947865807436999
O 1.1603957051134997 4.4322707008405 16.786103362436997
O 1.4337586948865 0.9149018191595 6.962881117562999
O 1.2950847298865 0.8271941541594998 18.801118672563003
O -0.2398692801135 3.5391063741595 6.9619237575629995
O -0.3785432451135 3.4513987091595 18.800161312563002
O 4.5431378348865 1.0519911891595 7.000093162562999
O 4.4044638698865 0.9642835241594998 18.838330717563
O 2.8695098598865 3.6761957441595 6.999135802562999
O 2.7308358948865004 3.5884880791595 18.837373357563003
O 1.3883013691595 0.8861512465724999 10.843455388092002
O 1.2496274041595 0.7984435815724998 22.681692943092
O -0.2853266058405 3.5103558015725 10.842498028092
O -0.4240005708405 3.4226481365725 22.680735583092
O 4.4976805091595 1.0232406165725 10.880667433092
O 4.3590065441595005 0.9355329515724998 22.718904988092
O 2.8240525341595 3.6474451715725 10.879710073092
O 2.6853785691595 3.5597375065725 22.717947628092
O -0.0912241691594999 1.7874350134275 1.031036851908
O -0.2298981341595 1.6997273484274995 12.869274406908
O -1.7648521441595 4.411639568427501 1.030079491908
O -1.9035261091595 4.323931903427501 12.868317046908
O 3.0181549708405 1.9245243834275 1.068248896908
O 2.8794810058405 1.8368167184275 12.906486451908
O 1.3445269958404995 4.548728938427501 1.0672915369079998
O 1.2058530308404998 4.461021273427501 12.905529091908
O -0.03466849125 -0.02192691625 2.95955938875
O -0.17334245625 -0.10963458125 14.79779694375
O 4.510461813750001 2.87645637875 3.03302611875
O 4.37178784875 2.78874871375 14.871263673749997
O 3.07471064875 0.11516245375 2.99677143375
O 2.9360366837500003 0.02745478875 14.83500898875
O 1.4010826737500002 2.73936700875 2.99581407375
O 1.26240870875 2.65165934375 14.834051628749997
O -0.10400547375 -0.06578074875 8.878678166249998
O -0.24267943875 -0.15348841375 20.71691572125
O 4.441124831250001 2.83260254625 8.95214489625
O 4.302450866250001 2.74489488125 20.79038245125
O 3.00537366625 0.07130862125 8.91589021125
O 2.86669970125 -0.01639904375 20.75412776625
O 1.33174569125 2.69551317625 8.91493285125
O 1.19307172625 2.60780551125 20.75317040625
