80   
   
Ga 6.971913322500002 2.3221031375 6.9348473075
Al 2.3229010875 6.9451631475 6.9611834825
Ga 6.9433800975 6.9688285375 2.3089117925
Ga 6.9592262175 6.9583263525 6.9449753925
Ga 2.3070549675 6.9556653325 2.3251198825
Ga 6.956067202500002 2.3326053225 2.2987837075
Al 2.3355881925 2.3089399325 6.9510553975
Al 2.3197420725 2.3194421175 2.3149917975
Ga 6.958509433140001 4.330202658880001 4.62119084022
Ga 2.2936510781400004 8.96376485388 0.01146341522
Ga 6.940937866860001 4.971231201120001 -0.01349534022
Al 4.63206305634 6.95770999108 4.3197953127
Ga 0.02427115134 2.2978213860800003 8.961938917699998
Al -0.00210700134 6.94311848892 4.9665080523
Al 4.33213709616 4.63273804456 6.94911754512
Ga 8.96530321116 0.02018021956 2.28671777012
Al 4.975364418840001 -0.00169497456 6.93678515988
Ga 2.32045885686 4.9475658111200005 4.63877634978
Ga 6.953624971860001 0.33500798612 -0.02362342522
Ga 2.3063381831400003 4.3275416388800005 0.00133533022
Ga 4.646905233660001 2.32005847892 4.9401718773
Ga -0.01795312134 6.95362067392 0.3304444523
Al 0.00842503134 2.3083235710800003 4.3258753177
Al 4.9468311938400005 4.64503042544 2.31084964488
Ga 0.3390392888400001 -0.01485817956 6.95299324988
Ga 4.328978081160001 0.00701701456 2.30292586012
Al 2.33314596186 0.31134259612 4.62864826478
Ga 4.631059113660001 2.33056066392 0.3041082773
Ga 0.3105060638400001 4.63186722044 2.32705773488
Ga 6.945822328140001 8.96642587388 4.63131892522
Ga 4.647909176340001 6.94720780608 8.9558589127
Ga 8.968462226160002 4.6459012495600005 6.93290945512
O 5.759911954530001 3.62807006161 6.07033757407
O 3.52774692825 8.254026116649998 7.831405455869999
O 8.14942332435 5.66681043495 1.43026161233
O 5.76033851787 5.64551456179 7.81791333273
O 6.079518226200001 5.75797420289 3.61669554652
O 7.84471240548 3.5270342397700003 8.24180342388
O 1.4435047099200002 8.15106811703 5.65949397032
O 7.8296853834 5.75834461531 5.63192503428
O 3.6286099587 6.07999577499 5.74933218514
O 8.252558599619999 7.84141995763 3.5116217271
O 5.67097480278 1.4440505811700002 8.1428904449
O 5.6452773639 7.828954861209999 5.74607361786
O 3.51905633547 5.64969840839 3.1896296159299995
O 5.751221361750001 1.02374235335 1.42856173413
O 1.12954496565 3.61095803505 7.829705577669999
O 3.5186297721300006 3.632253908210001 1.44205385727
O 3.1994500638 3.5197942671100004 5.64327164348
O 1.43425588452 5.750734230230001 1.01816376612
O 7.83546358008 1.12670035297 3.60047321968
O 1.4492829066 3.5194238546900003 3.62804215572
O 5.6503583313 3.19777269501 3.51063500486
O 1.0264096903800002 1.4363485123700002 5.7483454629
O 3.60799348722 7.83371788883 1.1170767451
O 3.6336909261 1.44881360879 3.51389357214
O 1.09505359953 8.261632256610001 1.46061014907
O 8.16091304325 3.64146829165 3.16900568087
O 3.5416314193500003 1.00692182995 6.07240521733
O 1.12085437287 1.00663032679 3.18792973773
O 1.4717263212000002 1.09808559789 8.25883915152
O 3.17985405048 8.160596434770001 3.63207599888
O 6.076670824920001 3.53851029203 0.99709419532
O 3.1902012384 1.1194603803099998 1.00194143928
O 8.2617760737 1.4674379499900003 1.08693241014
O 3.64476669462 3.18153135263 8.1537653321
O 1.00611644778 6.077612776170001 3.5331630199
O 1.0057932189 3.19007062621 1.11609002286
O 8.18391469047 1.0161362133900005 7.799357040929999
O 1.11805524675 5.63630017835 6.0909615091300005
O 5.73733687065 8.270846640049998 3.18756197267
O 8.15811391713 8.27113814321 6.07203745227
O 7.807241968799999 8.17968287211 1.00112803848
O 6.09911423952 1.11717203523 5.62789119112
O 3.20229746508 5.73925817797 8.26287299468
O 6.0887670516000005 8.158308089690001 8.25802575072
O 1.0171922163 7.81033052001 8.17303477986
O 5.63420159538 6.09623711737 1.1062018579
O 8.272851842220001 3.20015569383 5.7268041701
O 8.2731750711 6.087697843790001 8.143877167139998
