30   
   
In -0.00429779994652 0.00575241488592 2.11267440697516
In -0.01883271494652 0.02520675488592 9.25761910197516
In -0.02477203005348 0.03315626511408 12.17721498302484
In -0.01023711505348 0.01370192511408 5.032270288024841
In 2.6509448704720686 1.5964173695685373 6.877077192770307
In 2.6364099554720686 1.615871709568537 14.022021887770308
In 2.659540470365109 1.5849125397966972 2.6517283788199872
Ga 2.645005555365109 1.6043668797966972 9.796673073819987
In -0.057580680365108 3.128155660203303 11.630895921180015
Ga -0.043045765365108 3.108701320203303 4.4859512261800125
Al -0.048985080472068 3.116650830431463 7.405547107229695
Al -0.034450165472068 3.097196490431463 0.260602412229693
O 3.713256675129601 0.0506010931244 3.579813971988
O 0.7987747768832002 1.4417026805472 3.5702466145276004
O -1.9028042045128 3.2110372563284004 3.5600913659844
O 1.8031850131168004 3.2713655194528 10.7123776854724
O -0.8590041454872 1.4431042336716 10.711948734015602
O 1.6214416348704002 0.0472342968756 10.720659618012
O 1.0047312055481885 1.5823393378070174 8.333632557783147
O 3.454017447301789 3.032367635229817 8.334649400322748
O 3.4851769859057886 0.1864694010110174 8.342343441779548
O 1.8564678935353884 0.1489622741354174 1.194156171267547
O 1.8253083549313889 2.994860508354217 1.1864621298107467
O 4.305754135288988 1.598990571558217 1.195173013807147
O -1.7037943452889883 3.114077628441783 13.087451286192854
O 0.7454918964646119 4.564105925864583 13.088468128732455
O 0.7766514350686119 1.7182076916457825 13.096162170189254
O -0.8520576573017883 1.6807005647701825 5.947974899677254
O -0.8832171959057882 4.526598798988983 5.9402808582204525
O 1.597228584451812 3.1307288621929827 5.948991742216854
