80   
   
Ga 7.0805699325 2.35703824 7.047454579999999
Ga 2.3597179875 7.05534173 7.071722534999999
Ga 7.0554073975 7.077032410000001 2.347559115
Ga 7.0695837075 7.066891020000001 7.05717267
In 2.3455416775 7.065483120000001 2.36210898
Ga 7.0663936225 2.36717963 2.337841025
Ga 2.3707042125 2.34548895 7.062004445
Ga 2.3565279025 2.35563034 2.35239089
Ga 7.068735728299999 4.3967653359600005 4.69684601738
Ga 2.3337074733 9.10521021596 0.01150041738
Ga 7.0530652917 5.04744670404 -0.01144587738
Ga 4.70659870342 7.06687668452 4.38938710326
Ga 0.02189551842 2.3353332245200003 9.10383243326
Ga -0.00133903842 7.0539481654800005 5.04444441174
Ga 4.39987309104 4.705404633280001 7.06057794832
Al 9.10654872604 0.01724253328 2.32669643832
Ga 5.05140105396 -0.00287744328 7.04888107668
Ga 2.3573758817 5.0257560240400005 4.71271754262
Al 7.064051516699999 0.33759392404 -0.02116396738
Ga 2.3446936983 4.39535743596 0.00178232738
Ga 4.71951290658 2.35564467548 5.02017645674
In -0.01551534842 7.064089555480001 0.33483085674
Ga 0.00771920842 2.34547461452 4.39421887826
Ga 5.0262385189600005 4.7171167267200005 2.34898561168
Ga 0.34153533396 -0.01442673328 7.06343094168
Al 4.39668300604 0.00569324328 2.34124630332
Ga 2.3683621067 0.31590324404 4.70299945262
Ga 4.70533659658 2.36578606548 0.31056290174
Ga 0.31637279896 4.705567436720001 2.36353547668
Ga 7.057749503299999 9.10661811596 4.70656410738
Ga 4.72077501342 7.05673529452 9.09900065826
Ga 9.10973881104 4.71695392328 7.04602808332
O 5.850241583569999 3.6841204898800006 6.16857069794
O 3.5838501055299994 8.38461644804 7.9560874198199985
O 8.280405453869998 5.75376332276 1.45562830038
O 5.85078188203 5.73380313932 7.9436224818599985
O 6.17680678006 5.847439548700001 3.67587880873
O 7.96716598878 3.58091135734 8.37535693129
O 1.4674090942199998 8.28059205826 5.74887359051
O 7.953897161939999 5.847360435700001 5.72379956947
O 3.68627969024 6.17578306854 5.84129294785
O 8.38520996084 7.963104871019999 3.56978257829
O 5.75813905036 1.4656922561800003 8.274230165309998
O 5.735650323559999 7.95172320426 5.83860320855
O 3.57587002643 5.73840087012 3.24099286206
O 5.84226150447 1.03790491196 1.4534761401799998
O 1.14570615613 3.66875803724 7.953935259619999
O 3.57532972797 3.6887182206800007 1.46594107814
O 3.24930482994 3.5750818113000005 5.733684751269999
O 1.45894562122 5.84161000266 1.03420662871
O 7.95870251578 1.14192930174 3.66068996949
O 1.47221444806 3.5751609243000004 3.68576399053
O 5.73983191976 3.2467382914600003 3.56827061215
O 1.04090164916 1.4594164889800003 5.83978098171
O 3.66797255964 7.95682910382 1.13533339469
O 3.69046128644 1.4707981557400005 3.57096035145
O 1.11521332857 8.39256536988 1.48322509794
O 8.29052574053 3.696454348040001 3.2222059098199995
O 3.59570226887 1.02221986276 6.17007363038
O 1.13772607703 1.02254245932 3.23884070186
O 1.49210359506 1.1158960887 8.390324138729998
O 3.23213773378 8.28935623734 3.69001133129
O 6.17408472922 3.5924299582600003 1.01499208051
O 3.2408413569399994 1.1360997557 1.01901778947
O 8.39295532524 1.48762096854 1.10741143785
O 3.70050677584 3.23156141102 8.28422790829
O 1.02311079536 6.17413713618 3.58888456531
O 1.02259451856 3.2404625242600003 1.13382142855
O 8.31089828143 1.02995599012 7.926338462059999
O 1.1355858694699998 5.726067011960001 6.18735765018
O 5.830409341129999 8.40030149724 3.2394899296199995
O 8.28838553297 8.39997890068 6.17072285814
O 7.934008014939998 8.306625271299998 1.01923942127
O 6.19397387622 1.13316512266 5.71955222871
O 3.2520268807799995 5.830091401740001 8.39457147949
O 6.18527025306 8.286421604300001 8.39054577053
O 1.03315628476 7.93490039146 8.30215212215
O 5.72560483416 6.190959948980001 1.12533565171
O 8.40300081464 3.24838422382 5.82067899469
O 8.403517091439998 6.18205883574 8.27574213145
