20   
   
Ga 10.92650533051 1.188305e-05 1.1456451154799998
Al 0.0274412994899998 -7.9305e-07 4.49897036452
Ga 4.7610549755100005 1.52449454805 1.15381730048
Ga 6.19288053449 1.5244955219499998 4.49080581952
Ga 9.42568971463 1.5244992134899995 3.86967784613
Ga 1.5282457953700002 1.52449085651 1.7749452738699998
Al 3.2602504796300003 2.89849e-06 3.87784239113
Ga 7.693696150369998 8.19151e-06 1.76677308887
O 9.07081357325 9.11935e-06 5.02460629735
O 1.88313305675 1.97065e-06 0.6200091826499999
O 2.90536321825 1.52449178435 5.03277848235
O 8.048572291750002 1.52449828565 0.61184463765
O 9.59592161741 1.016983e-05 2.46032564006
O 1.35802501259 9.2017e-07 3.1842898399399995
O 3.43047126241 1.52449283483 2.46849782506
O 7.52346424759 1.52449723517 3.1761252949399994
O -0.97375062092 1.52448764252 4.20602596511
O 11.92768613092 1.52450242748 1.4385971548899998
O 5.19169973408 4.97752e-06 4.19785378011
O 5.76224689592 6.11248e-06 1.44676169989
