80   
   
In -0.01074204 -0.0635213 6.2026438175
In -0.03222612 -0.1905639 18.6079314525
In 5.06879142 2.956920755 6.2410075425
In 5.047307340000001 2.829878155 18.6462951775
In 3.40061835 -0.01943068 6.2088965975
Al 3.37913427 -0.14647328 18.6141842325
In 1.65743103 2.912830135 6.234754762500001
Al 1.63594695 2.785787535 18.6400423975
Al 0.0 0.0 0.0
In -0.02148408 -0.1270426 12.405287635
In 5.07953346 3.020442055 0.038363725
In 5.058049380000001 2.893399455 12.44365136
Al 3.41136039 0.04409062 0.00625278
In 3.38987631 -0.08295198 12.411540415
In 1.66817307 2.976351435 0.032110945
In 1.64668899 2.8493088349999995 12.43739858
In -0.0303732695250002 1.937579812925 3.1206430131130003
In -0.0518573495250002 1.810537212925 15.525930648112999
In -1.7735605895250002 4.869840627925 3.146501178113
In -1.7950446695250002 4.742798027925 15.551788813112998
In 3.3809871204749995 1.9816704329249997 3.126895793113
Al 3.3595030404749995 1.8546278329249997 15.532183428113
Al 1.6377998004749996 4.913931247925 3.152753958113
In 1.6163157204749996 4.786888647925 15.558041593112998
In 1.677062259525 0.9117290220749998 9.316755566887
In 1.655578179525 0.7846864220749998 21.722043201887
Al -0.0661250604750002 3.843989837075 9.342613731887
In -0.0876091404750002 3.716947237075 21.747901366887003
Al 5.088422649525 0.955819642075 9.323008346887
Al 5.066938569525 0.828777042075 21.728295981887
In 3.345235329525 3.888080457075 9.348866511887
In 3.323751249525 3.761037857075 21.754154146887
O -0.0338945102370002 1.916757530785 5.153869656489501
O -0.0553785902370002 1.7897149307849998 17.559157291489498
O -1.7770818302370002 4.849018345785 5.1797278214895
O -1.7985659102370002 4.721975745785 17.5850154564895
O 3.377465879763 1.9608481507849995 5.1601224364895
O 3.355981799763 1.8338055507849995 17.5654100714895
O 1.6342785597629996 4.893108965785 5.1859806014895
O 1.6127944797629996 4.766066365785 17.5912682364895
O 1.680583500237 0.9325513042149998 7.2835289235105
O 1.659099420237 0.8055087042149998 19.688816558510503
O -0.0626038197630002 3.864812119215 7.3093870885104995
O -0.0840878997630002 3.737769519215 19.714674723510498
O 5.091943890237 0.976641924215 7.289781703510499
O 5.070459810237 0.849599324215 19.695069338510503
O 3.348756570237 3.908902739215 7.315639868510499
O 3.327272490237 3.781860139215 19.720927503510502
O 1.673541018813 0.8909067399349998 11.349982210263502
O 1.652056938813 0.7638641399349998 23.755269845263495
O -0.0696463011870002 3.823167554935 11.3758403752635
O -0.0911303811870002 3.696124954935 23.7811280102635
O 5.084901408813 0.934997359935 11.3562349902635
O 5.063417328813 0.807954759935 23.761522625263495
O 3.341714088813 3.867258174935 11.382093155263501
O 3.320230008813 3.740215574935 23.7873807902635
O -0.0268520288130002 1.958402095065 1.0874163697365
O -0.0483361088130002 1.831359495065 13.492704004736499
O -1.7700393488130002 4.890662910065 1.1132745347365
O -1.7915234288130002 4.763620310065 13.5185621697365
O 3.384508361187 2.002492715065 1.0936691497365
O 3.363024281187 1.875450115065 13.4989567847365
O 1.6413210411869996 4.9347535300650005 1.1195273147365
O 1.6198369611869996 4.807710930065 13.524814949736502
O -0.00537102 -0.03176065 3.10132190875
O -0.0268551 -0.15880325 15.50660954375
O 5.07416244 2.988681405 3.13968563375
O 5.052678360000001 2.861638805 15.54497326875
O 3.40598937 0.01232997 3.10757468875
O 3.38450529 -0.11471263 15.51286232375
O 1.66280205 2.944590785 3.13343285375
O 1.64131797 2.817548185 15.53872048875
O -0.01611306 -0.09528195 9.30396572625
O -0.03759714 -0.22232455 21.70925336125
O 5.0634204 2.925160105 9.34232945125
O 5.0419363200000005 2.798117505 21.74761708625
O 3.39524733 -0.05119133 9.310218506250001
O 3.37376325 -0.17823393 21.71550614125
O 1.65206001 2.881069485 9.33607667125
O 1.63057593 2.754026885 21.74136430625
