80   
   
Al -0.031780015 -0.0600917825 6.1069666225
In -0.095340045 -0.1802753475 18.3208998675
Al 4.859294230000001 2.9406648275000005 6.1596363225
In 4.7957342 2.8204812625000004 18.3735695675
Al 3.2798320750000003 0.0284860275 6.1244157375
Al 3.216272045 -0.0916975375 18.3383489825
In 1.54768214 2.8520870175 6.1421872075
Al 1.4841221100000002 2.7319034525 18.3561204525
In 0.0 0.0 0.0
Al -0.06356003 -0.120183565 12.213933245
In 4.891074245 3.0007566100000003 0.0526697
Al 4.827514215000001 2.880573045 12.266602945
In 3.31161209 0.08857781 0.017449115
In 3.24805206 -0.031605755 12.23138236
In 1.579462155 2.9121788 0.035220585
In 1.515902125 2.791995235 12.24915383
In -0.066780844574 1.881689512757 3.0711455631815
Al -0.130340874574 1.761505947757 15.2850788081815
In -1.7989307795740004 4.705290502757 3.0889170331815
Al -1.8624908095740005 4.585106937757001 15.3028502781815
In 3.2448312454259995 1.970267322757 3.0885946781815
Al 3.1812712154259994 1.850083757757 15.3025279231815
Al 1.5126813104259993 4.7938683127570005 3.1063661481815
In 1.4491212804259992 4.673684747757001 15.3202993931815
Al 1.582682969574 0.910305722243 9.178008266818502
Al 1.5191229395739998 0.790122157243 21.391941511818494
In -0.1494669654260002 3.733906712243 9.1957797368185
Al -0.2130269954260002 3.613723147243 21.409712981818497
Al 4.8942950595740005 0.998883532243 9.1954573818185
In 4.830735029574001 0.878699967243 21.409390626818496
In 3.162145124574 3.822484522243 9.2132288518185
In 3.098585094574001 3.702300957243 21.427162096818495
O -0.077198333491 1.8619914264535 5.073009222037
O -0.140758363491 1.7418078614535 17.286942467036994
O -1.8093482684910005 4.685592416453501 5.090780692037
O -1.8729082984910004 4.5654088514535 17.304713937036997
O 3.2344137565089994 1.9505692364535 5.090458337037
O 3.1708537265089998 1.8303856714535 17.304391582037
O 1.5022638215089992 4.774170226453501 5.108229807037
O 1.4387037915089993 4.653986661453501 17.322163052037
O 1.5931004584909998 0.9300038085465 7.176144607962999
O 1.529540428491 0.8098202435465 19.390077852963003
O -0.1390494765090002 3.7536047985465 7.193916077963
O -0.2026095065090002 3.6334212335465 19.407849322963003
O 4.904712548491001 1.0185816185465 7.193593722963
O 4.8411525184910005 0.8983980535465 19.407526967963
O 3.1725626134910003 3.8421826085465 7.211365192962998
O 3.109002583491 3.7219990435465 19.425298437963
O 1.5722654806569998 0.8906076359394999 11.179871925674
O 1.508705450657 0.7704240709394999 23.393805170674
O -0.1598844543430002 3.7142086259395 11.197643395674
O -0.2234444843430002 3.5940250609394995 23.411576640674
O 4.883877570657001 0.9791854459395 11.197321040674
O 4.820317540657 0.8590018809395 23.411254285674
O 3.1517276356570005 3.8027864359395 11.215092510674
O 3.0881676056570004 3.6826028709395 23.429025755674
O -0.056363355657 1.9013875990605 1.069281904326
O -0.119923385657 1.7812040340605 13.283215149326
O -1.7885132906570005 4.724988589060501 1.087053374326
O -1.8520733206570004 4.604805024060501 13.300986619326
O 3.255248734343 1.9899654090605 1.086731019326
O 3.191688704343 1.8697818440605 13.300664264326
O 1.5230987993429992 4.813566399060501 1.104502489326
O 1.4595387693429993 4.6933828340605 13.318435734326
O -0.0158900075 -0.03004589125 3.05348331125
O -0.0794500375 -0.15022945625 15.26741655625
O 4.8751842375 2.9707107187500004 3.10615301125
O 4.8116242075 2.8505271537500003 15.320086256249997
O 3.2957220825 0.05853191875 3.07093242625
O 3.2321620525 -0.06165164625 15.28486567125
O 1.5635721475000002 2.88213290875 3.08870389625
O 1.5000121175 2.76194934375 15.30263714125
O -0.0476700225 -0.09013767375 9.16044993375
O -0.1112300525 -0.21032123875 21.37438317875
O 4.8434042225 2.91061893625 9.21311963375
O 4.779844192500001 2.79043537125 21.42705287875
O 3.2639420675 -0.00155986375 9.17789904875
O 3.2003820375000003 -0.12174342875 21.39183229375
O 1.5317921325 2.82204112625 9.19567051875
O 1.4682321025 2.70185756125 21.40960376375
