80   
   
Al -0.0491049225 -0.0201770875 5.9656773675
Ga -0.1473147675 -0.0605312625 17.8970321025
Al 4.6519136975 2.7178552225000003 6.0127408625
Ga 4.5537038525 2.6775010475000003 17.944095597499995
Al 3.0917682875 -0.0082891225 5.9915226475
Ga 2.9935584425 -0.0486432975 17.922877382499998
Ga 1.5110404875 2.7059672575 5.9868955825
Ga 1.4128306425 2.6656130825 17.9182503175
Ga 0.0 0.0 0.0
Al -0.098209845 -0.040354175 11.931354735
Al 4.70101862 2.7380323100000004 0.047063495
Al 4.602808775 2.6976781350000003 11.97841823
Ga 3.14087321 0.011887965 0.02584528
Al 3.042663365 -0.02846621 11.957200015
Al 1.56014541 2.726144345 0.021218215
Ga 1.461935565 2.68579017 11.952572949999999
Ga -0.0314125718370001 1.8031970178925 2.988368514045
Ga -0.1296224168370001 1.7628428428925 14.919723249045
Ga -1.6121403718370004 4.5174533978925 2.983741449045
Al -1.7103502168370004 4.4770992228925 14.915096184044998
Ga 3.109460638163 1.8150849828925 3.014213794045
Ga 3.011250793163 1.7747308078925 14.945568529044998
Ga 1.528732838163 4.5293413628925 3.009586729045
Ga 1.430522993163 4.4889871878925 14.940941464044998
Ga 1.493348136837 0.8825931521075 8.964204435954999
Ga 1.395138291837 0.8422389771075001 20.895559170955
Ga -0.0873796631629999 3.5968495321075 8.959577370954998
Ga -0.1855895081629999 3.5564953571075 20.890932105955002
Ga 4.634221346837001 0.8944811171075 8.990049715955
Ga 4.536011501837001 0.8541269421075001 20.921404450955002
Ga 3.0534935468370006 3.6087374971075 8.985422650955
Al 2.9552837018370006 3.5683833221075 20.916777385955
O -0.0475091654325001 1.79658296861 4.9439175551115
O -0.1457190104325001 1.75622879361 16.8752722901115
O -1.6282369654325004 4.51083934861 4.9392904901115
O -1.7264468104325004 4.47048517361 16.8706452251115
O 3.0933640445675 1.80847093361 4.969762835111499
O 2.9951541995675 1.76811675861 16.9011175701115
O 1.5126362445675 4.52272731361 4.9651357701115
O 1.4144263995675 4.48237313861 16.896490505111494
O 1.5094447304324998 0.8892072013900001 7.008655394888498
O 1.4112348854325 0.84885302639 18.940010129888496
O -0.0712830695674999 3.60346358139 7.004028329888499
O -0.1694929145674999 3.56310940639 18.935383064888494
O 4.650317940432501 0.90109516639 7.034500674888499
O 4.552108095432501 0.86074099139 18.965855409888498
O 3.069590140432501 3.61535154639 7.029873609888499
O 2.9713802954325006 3.57499737139 18.9612283448885
O 1.4772515432415 0.875979102825 10.919753477021501
O 1.3790416982415 0.8356249278250001 22.851108212021497
O -0.1034762567584999 3.590235482825 10.9151264120215
O -0.2016861017584999 3.549881307825 22.846481147021496
O 4.618124753241501 0.887867067825 10.9455987570215
O 4.519914908241501 0.8475128928250001 22.876953492021496
O 3.0373969532415006 3.602123447825 10.9409716920215
O 2.9391871082415006 3.561769272825 22.8723264270215
O -0.0153159782415001 1.809811067175 1.0328194729785
O -0.1135258232415001 1.769456892175 12.9641742079785
O -1.5960437782415002 4.524067447175001 1.0281924079785
O -1.6942536232415004 4.483713272175001 12.959547142978499
O 3.1255572317585 1.821699032175 1.0586647529784998
O 3.0273473867585 1.781344857175 12.990019487978499
O 1.5448294317585 4.535955412175 1.0540376879784998
O 1.4466195867585 4.495601237175 12.9853924229785
O -0.02455246125 -0.01008854375 2.98283868375
O -0.12276230625 -0.05044271875 14.91419341875
O 4.67646615875 2.727943766250001 3.02990217875
O 4.57825631375 2.6875895912500005 14.961256913749997
O 3.11632074875 0.00179942125 3.00868396375
O 3.01811090375 -0.03855475375 14.94003869875
O 1.53559294875 2.7160558012500005 3.00405689875
O 1.43738310375 2.6757016262500004 14.935411633749997
O -0.07365738375 -0.03026563125 8.948516051249998
O -0.17186722875 -0.07061980625 20.87987078625
O 4.6273612362500005 2.7077666787500005 8.99557954625
O 4.52915139125 2.6674125037500005 20.92693428125
O 3.06721582625 -0.01837766625 8.97436133125
O 2.96900598125 -0.05873184125 20.90571606625
O 1.48648802625 2.6958787137500004 8.96973426625
O 1.38827818125 2.6555245387500004 20.90108900125
