40   
   
Al 3.244816482162012 0.039288437954784 2.9173141113630514
Al 6.329485287837987 0.091429162045216 11.099643478636947
Al -0.053382495 0.00428409625 1.75500517875
Al -0.373677465 0.02998867375 12.28503625125
Al 6.596397762837988 0.070008680795216 2.324617584886949
Al 2.977904007162011 0.060708919204784 11.692340005113053
Al 10.678465057162013 1.549942864204784 4.65034014011305
Al 8.869217987837986 1.545292980795216 9.334201069886948
Al 3.868537122837988 1.497070565795216 9.345742989886947
Al 5.677784192162012 1.501720449204784 4.661882060113051
In 6.4362503735810055 0.082860970852392 7.589633261306525
Al 3.138051396418994 0.047856629147608 6.427324328693475
In -0.21352998 0.017136385 7.020020715
Al 5.000680865 0.048222415 -0.01154192
Al 2.486350205 1.458147915 -0.01043723
Al 7.487031069999999 1.50637033 -0.02197915
O 4.959879885181006 0.057490694752392 3.5217146610065253
O 4.614421884818993 0.073226905247608 10.495242928993475
O 3.300334281232611 0.0348329775120563 1.0921085850626364
O 6.273967488767388 0.0958846224879437 12.924849004937363
O 7.346775981967389 1.4573126921879436 3.5116949204373635
O 2.2006645512326117 1.426755386212056 10.496303431162637
O 7.2002261980326105 1.5897007378120565 10.484388209562637
O 12.346337628767385 1.6202580437879437 3.499779698837364
O -0.1089002898 0.00873955635 3.58021056465
O -0.3181596702 0.02553321365 10.45983086535
O 8.232915831981007 0.082526669452392 1.127520789106525
O 1.341385938018994 0.048190930547608 12.889436800893474
O 10.818720045181006 1.5990005010523922 1.1166660699065254
O 8.727843881632609 1.6109582815120564 12.867501838262637
O 3.7282821348189934 1.448012928947608 12.879417060093475
O 5.819158298367388 1.4360551484879436 1.1285812917373637
O 8.151313776599999 0.10106322765 8.194033810949998
O 1.4229879934 0.02965437235 5.82292377905
O 6.491768072637988 0.078405509445216 5.76442773523695
O 3.082533697362011 0.052312090554784 8.252529854763049
O 10.5382099734 1.50088522605 8.184014070149999
O 9.010592289800002 1.47962768235 5.80090044145
O 4.0087922066 1.5461282039500002 5.81206905985
O 5.5364098902 1.5673857476500002 8.19518268855
