80   
   
In 1.7271536105599998 7.816144179229998 6.783762316829999
In 7.09550973556 7.804202419229998 6.75626943683
In 3.70634617232 1.36358760659 1.90391503729
Al 9.07470229732 1.35164584659 1.87642215729
In 1.02623813106 3.21992372247 1.91094352895
In 6.39459425606 3.20798196247 1.88345064895
Al 4.407261651820001 5.959808063350001 6.776733825169999
In 9.77561777682 5.9478663033500005 6.74924094517
Ga 0.974193538335 6.02528977748 -0.02680444338
In 6.342549663335 6.01334801748 -0.05429732338
In 4.439476216665001 3.14058166752 4.85891088338
Al 9.807832341665 3.12863990752 4.83141800338
Ga 1.7515908080850002 1.4610713425600002 4.87877664266
In 7.119946933085 1.44912958256 4.85128376266
In 3.712408966915 7.73997863244 9.739042777340002
In 9.080765091915 7.72803687244 9.71154989734
Al 0.95276797758 0.30794385399 9.77031074808
In 6.32112410258 0.2960020939899999 9.74281786808
In 4.51113113738 8.893035763949998 4.82793724596
In 9.87948726238 8.881094003949999 4.80044436596
Al 1.81808768208 4.86850811035 4.85631684076
In 7.18644380708 4.85656635035 4.82882396076
Al 3.64581143288 4.33247150759 9.74193115328
Al 9.01416755788 4.32052974759 9.71443827328
Al 3.720097004705 1.45766055609 7.67730211677
Ga 9.088453129705 1.44571879609 7.64980923677
In 1.722462181775 7.72840336513 2.77180357375
In 7.090818306775 7.71646160513 2.74431069375
Ga 4.402892600955 6.01863083229 2.7642429673699995
In 9.771248725955 6.00668907229 2.7367500873699995
Al 1.039666585525 3.16743308893 7.68486272315
Ga 6.4080227105250005 3.15549132893 7.657369843149999
O 4.508791362265 6.14970452411 8.69360104689
O 9.877147487265 6.13776276411 8.66610816689
O 0.944437788455 3.04381724547 3.83007579539
O 6.312793913455 3.03187548547 3.80258291539
O 3.625351774515001 1.55389008719 3.82171701693
O 8.993707899515 1.54194832719 3.79422413693
O 1.827877376205 7.639631682389998 8.70195982535
O 7.196233501205 7.627689922389998 8.67446694535
O 2.850225885785 0.09829988683 6.14048038789
O 8.218582010785 0.08635812683 6.11298750789
O 2.576429014375 9.07664761891 1.21634000095
O 7.944785139375 9.06470585891 1.18884712095
O 5.2508954420350005 4.65544879983 1.21862351689
O 10.619251567034999 4.643507039829999 1.19113063689
O 0.175759458125 4.51949870591 6.13819687195
O 5.544115583125 4.50755694591 6.11070399195
O 0.103278183035 7.579582674109998 1.15615519779
O 5.471634308034999 7.567640914109998 1.12866231779
O 5.322571436805 1.5948019751499998 6.044093783369999
O 10.690927561805 1.5828602151499995 6.01660090337
O 2.641496261785 3.0114473419100003 6.052718619189999
O 8.009852386785001 2.9995055819100003 6.02522573919
O 2.784353358055 6.16293730735 1.14753036197
O 8.152709483055 6.15099554735 1.12003748197
O 5.26697680396 7.659623501319999 6.18879206493
O 10.635332928960002 7.647681741319999 6.16129918493
O 0.16058403656 1.51595721796 1.3441711575500002
O 5.52894016156 1.50401545796 1.31667827755
O 2.84818736446 3.06722440776 1.32477099865
O 8.216543489460001 3.05528264776 1.29727811865
O 2.57937347606 6.108356311520001 6.20819222383
O 7.94772960106 6.096414551520001 6.18069934383
O 1.984987623845 1.5833917014200003 8.458848792099998
O 7.353343748844998 1.5714499414200005 8.431355912099999
O 3.465523705795 7.608230427539999 3.53639954926
O 8.833879830795 7.596288667539999 3.50890666926
O 0.7781218640950001 6.14856547714 3.55546713646
O 6.1464779890950005 6.13662371714 3.52797425646
O 4.672389465544999 3.04305665182 8.4397812049
O 10.040745590545 3.03111489182 8.412288324899999
O 4.53326288712 0.03083758958 8.78412437715
O 9.90161901212 0.01889582958 8.75663149715
O 0.92067088388 9.16317667942 3.87655244685
O 6.289027008879999 9.151234919419998 3.84905956685
O 3.59481493362 4.5954142773 3.87936807751
O 8.963171058619999 4.5834725173 3.85187519751
O 1.8591188373800005 4.5985999917 8.781308746489998
O 7.227474962380001 4.5866582317 8.75381586649
