80   
   
Al 7.0138077025 2.3369238150000005 6.985672524999999
Ga 2.3360449525 6.992892775 7.00664678
In 6.9907789425 7.0123692 2.327124325
Al 7.0031278275 7.00379391 6.99404727
In 2.3236960675 7.001468065 2.339723835
Al 7.0014588175000005 2.3454991050000005 2.31874958
Al 2.3467248275 2.3260226800000003 6.998272035
Ga 2.3343759425 2.3345979700000004 2.33134909
Al 7.003019554 4.357299341040001 4.65582894234
Ga 2.312907919 9.02184359104 0.00988025234
Ga 6.989218206 5.00056896396 -0.00995503734
Al 4.662572223320001 7.003214107220001 4.34953479224
Ga 0.01851810832 2.31686758722 9.02068250224
Al -0.00283120332 6.99114673278 4.99683582276
In 4.357564692 4.66416701782 6.99701641918
Al 9.022978557 0.01677334782 2.30911921918
Ga 5.002967838 -0.00122052282 6.986928140819999
Al 2.3344842160000003 4.9810925389600005 4.66956741766
Al 6.999898081 0.3336988689600001 -0.01832978234
Ga 2.3235877940000003 4.35497349604 0.00150550734
Al 4.674931546680001 2.3351777727800003 4.97586156776
In -0.01518008832 6.99972202278 0.32991287776
In 0.00616922332 2.32544287722 4.35375955724
Al 4.979939078 4.67422486218 2.32837994082
Al 0.335884963 -0.01212165782 6.999527650819999
Al 4.355895682 0.00587221282 2.32171872918
Ga 2.3451640910000005 0.31422244396 4.66119267266
Al 4.66258266168 2.3437530627800003 0.30893862276
Al 0.312856203 4.663323727180001 2.34097945082
Al 6.992339679 9.02416943604 4.66420368734
In 4.67492110832 6.99463881722 9.01645773724
Al 9.024647567 4.67506815282 6.984416909179999
O 5.79503283987 3.65175904121 6.11392856203
O 3.54879636563 8.31017228237 7.883114099149998
O 8.20491062437 5.700758282830001 1.4441052606499998
O 5.79501959513 5.68329009359 7.872342978169998
O 6.11962651507 5.79451533014 3.64338786967
O 7.89192490107 3.549941221300001 8.30155352131
O 1.45237421893 8.206647818100002 5.695120651089999
O 7.879833789929998 5.79487533046 5.67342885793
O 3.65095942965 6.12082489261 5.788119300419999
O 8.30809920685 7.89058532253 3.5385456809399995
O 5.702908858350001 1.4542485416700002 8.201051100459999
O 5.681791930150001 7.88032094319 5.785774818179999
O 3.5424709301300004 5.6866328387900005 3.2114677979699997
O 5.788707404369999 1.02821959763 1.44228226085
O 1.1325931456300002 3.63763359717 7.8812910993499985
O 3.54248417487 3.65510178641 1.4530533818299998
O 3.21787725493 3.54387654986 5.68200849033
O 1.44557886893 5.7884506587 1.0238428386899998
O 7.885129551069999 1.1317440619 3.63027570891
O 1.45766998007 3.5435165495400005 3.65196750207
O 5.68654434035 3.21756698739 3.53727705958
O 1.0294045631500002 1.4478065574700003 5.78685067906
O 3.63459491165 7.884143338329999 1.12434525954
O 3.65571183985 1.4580709368100002 3.53962154182
O 1.10492120487 8.316303291209998 1.46797987203
O 8.21421023063 3.66277861237 3.19521689915
O 3.56085650937 1.0144117628300002 6.11525297065
O 1.12626771013 1.01409415359 3.20964479817
O 1.47557240007 1.1081688101400002 8.31453557967
O 3.2018132660699994 8.214485471300002 3.65560483131
O 6.117788083930001 3.5592541481000004 1.00722345109
O 3.2110819049299995 1.1256793904600002 1.0107306779299998
O 8.31637329465 1.47343122261 1.10022210042
O 3.66404509185 3.20423880253 8.20969339094
O 1.01279722335 6.11879279167 3.5551024104599995
O 1.01304004515 3.2111250031900003 1.12307663818
O 8.23258256513 1.02208858879 7.857416487969998
O 1.12329353937 5.67561326763 6.13017946085
O 5.77664726063 8.32398011717 3.2101433893499998
O 8.21123605987 8.32429772641 6.11575156183
O 7.861931369929998 8.230223069860001 1.0108607803299998
O 6.13569050393 1.1239064087 5.66979152869
O 3.21971568607 5.7791377319 8.31817290891
O 6.126421865070001 8.212712489540001 8.31466568207
O 1.02113047535 7.86496065739 8.22517425958
O 5.67345867815 6.13415307747 1.1157029690599998
O 8.32470654665 3.2195990883300003 5.770293949539999
O 8.32446372485 6.12726687681 8.202319721819999
