80   
   
In 1.64830640898 7.422161908349999 6.4899027697600005
Al 6.727455173980001 7.39740158835 6.46818639976
Al 3.50856991824 1.28510788441 1.8227415621400005
Ga 8.587718683240002 1.26034756441 1.8010251921400002
In 0.97752280212 3.05832776303 1.83037304964
Ga 6.05667156712 3.03356744303 1.8086566796400003
Ga 4.179353525100001 5.64894202973 6.48227128226
Ga 9.258502290100001 5.62418170973 6.46055491226
Al 0.936944565955 5.731372530700001 -0.01439795773
In 6.016093330955 5.7066122107 -0.03611432773
Ga 4.204280454045 2.9692857293 4.646917262730001
Ga 9.283429219045 2.9445254093 4.625200892730001
Ga 1.6569386605850005 1.37773268026 4.66071461773
Al 6.736087425585 1.35297236026 4.63899824773
Al 3.5240104894150006 7.33970611974 9.31222353727
Ga 8.603159254415 7.3149457997399985 9.29050716727
Ga 0.8942478240900001 0.274114875 9.32695086849
Ga 5.97339658909 0.249354555 9.30523449849
Ga 4.286621877650001 8.44329036392 4.627306448810001
Al 9.365770642650002 8.41853004392 4.605590078810001
Ga 1.72847325155 4.62017806752 4.645193083810001
Al 6.807622016550002 4.595417747520001 4.623476713810001
Al 3.4523964501900006 4.097227171399999 9.30906423349
Ga 8.53154521519 4.0724668514 9.28734786349
Al 3.517107422165 1.36481891045 7.333526042750002
Al 8.596256187165 1.34005859045 7.31180967275
Al 1.6469192484550002 7.34547137951 2.66039368215
Al 6.726068013455 7.32071105951 2.63867731215
Ga 4.178641791615 5.71172395385 2.65250661465
Ga 9.257790556615 5.6869636338500005 2.63079024465
Ga 0.985384879005 2.99856633611 7.34141311025
Al 6.064533644005 2.97380601611 7.319696740250001
O 4.274329267385 5.826150656330001 8.312304723570001
O 9.353478032385 5.801390336330001 8.290588353570001
O 0.8981189187950002 2.88769710811 3.661783797530001
O 5.9772676837950005 2.86293678811 3.640067427530001
O 3.4308546025150006 1.46315836189 3.65351336003
O 8.510003367514999 1.43839804189 3.63179699003
O 1.741593583665 7.25068940255 8.320575161070002
O 6.820742348665 7.225929082549999 8.298858791070002
O 2.6919195071050006 0.07600904645 5.86357859865
O 7.771068272104999 0.05124872645 5.84186222865
O 2.459554338435 8.62897859287 1.1787687696500002
O 7.538703103435002 8.60421827287 1.1570523996500002
O 4.978781481355 4.41499078745 1.1756099321500002
O 10.057930246355 4.39023046745 1.1538935621500002
O 0.172692364185 4.28999685187 5.86673743615
O 5.251841129184999 4.26523653187 5.84502106615
O 0.115904986335 7.210641452909998 1.11665464405
O 5.195053751334999 7.18588113291 1.09493827405
O 5.0349332731250005 1.49407769777 5.7762460226500005
O 10.114082038125 1.46931737777 5.7545296526500005
O 2.501859875885 2.84888021751 5.78464425015
O 7.581008640885002 2.82411989751 5.76292788015
O 2.6489783835750003 5.85583893317 1.10825641655
O 7.728127148575 5.831078613170001 1.08654004655
O 4.997525443170001 7.26535759233 5.9247408334100005
O 10.07667420817 7.24059727233 5.90302446341
O 0.15466343671 1.43993209671 1.2857340741900003
O 5.23381220171 1.41517177671 1.2640177041900005
O 2.7014142315100007 2.90944674941 1.2721603516900002
O 7.78056299651 2.88468642941 1.2504439816900002
O 2.45077464837 5.79584293963 5.938314555910001
O 7.529923413369999 5.7710826196300005 5.916598185910001
O 1.875150213045 1.4874882848200002 8.07824757703
O 6.954298978045 1.46272796482 8.05653120703
O 3.2951528701150004 7.225453330459999 3.39145832617
O 8.374301635114998 7.200693010459999 3.3697419561700004
O 0.748824217215 5.84310896086 3.40487231117
O 5.827972982215001 5.81834864086 3.38315594117
O 4.421478865945 2.86983265442 8.06483359203
O 9.500627630945 2.84507233442 8.04311722203
O 4.28196229873 0.00311988679 8.388206105930001
O 9.36111106373 -0.02164043321 8.366489735930001
O 0.8910420252700001 8.71096280521 3.7166482790700006
O 5.97019079027 8.68620248521 3.694931909070001
O 3.40959374115 4.357502546830001 3.71374502157
O 8.48874250615 4.332742226830001 3.6920286515700007
O 1.7634105828500002 4.35658014517 8.391109363430001
O 6.842559347850001 4.331819825169999 8.36939299343
