40   
   
In 0.96431047474 5.984850461140001 -0.02475479889
Al 4.40536248026 3.12035006386 4.83206684389
In 1.73666497186 1.45080545082 4.85018665441
Al 3.63300798314 7.654395074180002 -0.04287460941
Al 3.69050920368 1.44774799552 7.63254938774
In 1.70529308658 7.67605492238 2.75754368416
In 4.36841882048 5.979356440720001 2.75083884724
In 1.02738346978 3.1444464771800003 7.63925422466
In 1.7080818082000002 7.76215285424 6.74507226647
In 3.67952661386 1.35581656066 1.89432292243
In 1.01664182156 3.19808231128 1.90053413887
Al 4.3709666005 5.91988710362 6.73886105003
Al 0.9416790984900002 0.30380963367 9.71126680545
Al 4.473424303529999 8.83373442463 4.80269239085
In 1.8008717295300003 4.835113508230001 4.82871012905
Al 3.61423167249 4.30243055007 9.68524906725
O 4.47083149666 6.1080459411 8.644136429079998
O 0.93462134948 3.0226275470000004 3.80788970502
O 3.59810849578 1.5442799687800002 3.80044443738
O 1.80734435036 7.58639351932 8.651581696720001
O 2.82799156086 0.09756351194 6.10437349588
O 2.55342593856 9.015998367360002 1.21227218142
O 5.212094252860001 4.6263054099400005 1.21469932338
O 0.16932324656 4.487256469360001 6.10194635392
O 5.22417831629 7.608761239029999 6.1553010343
O 0.15805856995 1.5053839905700002 1.3364144313
O 2.82654525445 3.0475572432700004 1.3187265387000002
O 2.5556916317900003 6.066587986330001 6.1729889269000005
O 0.09793956964 7.527795255320002 1.15097071754
O 5.28274958594 1.58524809038 6.01005737016
O 2.61914196884 2.9908120341200006 6.01774944804
O 2.76154718674 6.122231311580001 1.14327863966
O 1.9667806778 1.5714840402400003 8.40857334715
O 3.4362140078800003 7.55743939696 3.51824342205
O 0.7678779118800001 6.10624568736 3.53562280185
O 4.6351167738 3.02267774984 8.39119396735
O 4.4984138088100005 0.03077661475 8.73265357512
O 0.90767633819 9.10035059025 3.85553794988
O 3.56610371089 4.56509036387 3.858458712320001
O 1.83998643611 4.566036841130001 8.72973281268
