40   
   
Ga 12.17103208565756 2.0170116144105763 3.1701508049101568
In 8.975167327658902 1.9936324090792523 11.633954425145935
Ga 5.230862174931793 2.01495600498766 1.8822835480584976
Al 5.559926354931793 1.98813428748766 12.811568420558496
Al 8.700947177658898 2.0159838403292523 2.526217031395937
In 12.44525223565756 1.9946601831605764 12.277888198660158
Ga 9.63828881565756 0.4989157731605764 4.9599278886601565
Al 1.1550306076589003 0.4807003353292523 9.725509921395936
Al 7.0481707256575605 2.0087645231605764 4.936571653660157
Al 3.742617907658901 1.994325890329252 9.757280316395937
Ga 8.865479272046423 2.002572981221629 7.990859613369736
In 12.28072014127004 2.0080710422681998 6.813245616686358
In 5.3953942649317925 2.00154514623766 7.3469259843084975
Ga 7.766136234931792 0.5095775412376602 0.0840923043084977
Ga 2.5884308449317928 0.5058007362376602 0.0289656743084977
In 10.353723534931792 2.02320309623766 0.1158626993084977
O 7.911023039246422 0.5610720901216295 3.7520104050697354
O 2.8821951524700387 0.5394829905681993 10.933763971386359
O 12.11399429007004 2.0216607124682 1.275741281286359
O 9.032205123246422 1.9889833110216293 13.528363948769735
O 2.733418880846423 0.4363563129216294 3.696547208669735
O 8.060001774070038 0.4223208233681993 10.98855403498636
O 10.395106847246424 2.0141526229216296 3.782509984269735
O 10.751092566070039 1.9964914005681995 11.021595245786358
O 5.287900017883539 2.010306937560171 3.776692926593905
O 5.502888615483539 1.9927834154601711 10.917159043293903
O 4.315696724846423 0.4436444798216294 1.2368831591697351
O 6.477723930070039 0.4150326564681993 13.448218084486358
O 9.49330088324642 0.5683602570216294 1.2923463555697352
O 11.65532808847004 0.5397484336681994 13.503681280886358
O 7.006787516846424 2.0178150570216293 1.2699243699697351
O 14.139411896470039 1.9928289664681995 13.534180860086357
O 4.605470173883539 0.5466334266601715 8.572719212893904
O 6.187748017883537 0.5539215935601713 6.113055163393905
O 8.808441476458901 2.007222079279253 6.096450089745937
O 12.337757936857562 2.0034219442105763 8.707655140310157
O 9.783276795483536 0.4294712594601712 8.627509276493905
O 1.0101438594835386 0.4292058163601713 6.057591966993905
O 7.089553981883539 1.9997139594601707 8.603218792093905
O 3.7012346514835386 2.0033763935601714 6.0906331777939045
