80   
   
Ga 1.71401069384 7.73339864511 6.721391660629999
In 7.020332668840002 7.71680529511 6.694361815629999
In 3.66469125536 1.34587170943 1.88623351729
Ga 8.97101323036 1.32927835943 1.85920367229
Ga 1.01721384894 3.18585924551 1.89376061641
In 6.32353582394 3.16926589551 1.86673077141
Ga 4.361488100260001 5.8934111090300005 6.71386456151
Al 9.667810075260002 5.876817759030001 6.686834716509999
Ga 0.968345476845 5.963626753670001 -0.024343232275
In 6.2746674518450005 5.947033403670001 -0.051373077275
Ga 4.390857688155 3.1032651413300005 4.813474787275
In 9.697179663155 3.0866717913300006 4.786444942275
In 1.732519577295 1.44309093297 4.832443964735
Al 7.038841552295 1.4264975829700002 4.805414119735
In 3.676172887705 7.65521837203 9.648295770265
In 8.982494862705 7.63862502203 9.621265925265002
Al 0.9417459987000002 0.30063160599 9.676486277159999
Al 6.2480679737 0.28403825599 9.64945643216
Al 4.466847487700001 8.79761486419 4.784870241479999
In 9.773169462700002 8.78102151419 4.75784039648
Ga 1.8013064226000002 4.81608986159 4.81142794758
In 7.107628397600001 4.79949651159 4.78439810258
In 3.6072870638 4.28215660859 9.649928571059998
In 8.9136090388 4.26556325859 9.62289872606
In 3.678196068755 1.4369999737000003 7.604126291504999
Al 8.984518043755001 1.4204066237 7.577096446505
In 1.709413954445 7.64792551464 2.747988358815
Al 7.015735929445 7.63133216464 2.7209585138149994
Ga 4.357341545505 5.9530224032 2.739986976655
Ga 9.663663520505 5.9364290532 2.712957131655
Al 1.0302684776950002 3.1319030851400003 7.6121276736649985
Ga 6.336590452695001 3.1153097351400003 7.585097828665
O 4.461958207435001 6.08064236524 8.612367403624999
O 9.768280182435 6.06404901524 8.585337558624998
O 0.9361435473650002 3.0109436140200003 3.794368180855
O 6.242465522365 2.9943502640200004 3.767338335855
O 3.584746415385 1.53366713954 3.785655374135
O 8.891068390384998 1.5170737895400002 3.758625529135
O 1.813355339415 7.55791883972 8.621080210345
O 7.119677314415 7.54132548972 8.594050365344998
O 2.817201035435001 0.092660031 6.081564092385
O 8.123523010435001 0.076066681 6.054534247385
O 2.554770368965 8.98233755578 1.208002373055
O 7.861092343965 8.96574420578 1.180972528055
O 5.194369544185 4.603372588500001 1.208775227135
O 10.500691519185 4.586779238500001 1.181745382135
O 0.177601860215 4.47162499828 6.080791238304999
O 5.483923835214999 4.45503164828 6.053761393305
O 0.108851953505 7.50260380494 1.147764637475
O 5.415173928505 7.48601045494 1.120734792475
O 5.262327622095 1.57189110328 5.986736097084999
O 10.568649597095 1.55529775328 5.959706252085
O 2.613499661755 2.9766253654400003 5.995686045325
O 7.919821636755001 2.9600320154400004 5.968656200325
O 2.757679913845 6.097869542780001 1.138814689235
O 8.064001888844999 6.081276192780001 1.1117848442349998
O 5.212813144000001 7.57550898228 6.132221363349999
O 10.519135119 7.55891563228 6.10519151835
O 0.1600490678 1.5000541178800002 1.33179404933
O 5.4663710428000005 1.4834607678800005 1.30476420433
O 2.8179932671000003 3.03327945468 1.31323986953
O 8.1243152421 3.01668610468 1.28621002453
O 2.5548689447 6.04228364548 6.15077554315
O 7.8611909197 6.0256902954800005 6.12374569815
O 1.963223178575 1.56273928951 8.378135652534999
O 7.269545153575 1.54614593951 8.351105807534998
O 3.432206154025 7.52715014961 3.505253090225
O 8.738528129025001 7.51055679961 3.478223245225
O 0.774543320125 6.084602578210001 3.5235108431249995
O 6.080865295125 6.068009228210001 3.496480998125
O 4.620886012475 3.00528686091 8.359877899634998
O 9.927207987475 2.98869351091 8.332848054634999
O 4.48065367764 0.02347140494 8.699820768889998
O 9.78697565264 0.00687805494 8.67279092389
O 0.91814092736 9.06855441806 3.84259733011
O 6.22446290236 9.05196106806 3.81556748511
O 3.5572899179400004 4.54450502614 3.84384446723
O 8.86361189294 4.5279116761400005 3.81681462223
O 1.8415046870600005 4.54752079686 8.698573631769998
O 7.147826662060001 4.53092744686 8.67154378677
