30   
   
Al -0.00049253045848 0.00106791269456 1.95300500557968
Al -0.00215824045848 0.00467953269456 8.55795686557968
Al -0.00283888954152 0.00615532730544 11.256898714420322
Ga -0.00117317954152 0.00254370730544 4.65194685442032
Al 2.4221469938494136 1.409583015378734 6.355711284885809
Al 2.4204812838494134 1.413194635378734 12.960663144885809
Al 2.423132054766373 1.407447189989614 2.4497012737264487
Al 2.4214663447663733 1.4110588099896135 9.054653133726449
Al -0.0086423747663731 2.8078323300103865 10.758431826273553
Al -0.0069766647663731 2.8042207100103864 4.153479966273551
Al -0.0076573138494131 2.8056965046212663 6.852421815114192
Ga -0.0059916038494131 2.8020848846212663 0.2474699551141912
O 3.3656995117048005 0.0089266003212 3.3024661288668
O 0.7398908171960003 1.2909859319408 3.3019334828568
O -1.6902677939008002 2.9135611777380004 3.3012575582764
O 1.6745988628040005 2.9242935880592005 9.9061996171432
O -0.7486713460992 1.2914525122620002 9.9068896717236
O 1.4843978882952005 0.0085624696788 9.9074234611332
O 0.9349102160126934 1.4071758730053736 7.705186538172928
O 3.162530341503893 2.699501034624974 7.704639762162928
O 3.1679794504070933 0.1242858304221738 7.705720327582528
O 1.6827487071118934 0.1175291707433738 1.1007727964493288
O 1.6772995982086936 2.6927443749461735 1.0996922310297288
O 3.9103688326030928 1.4098543323629738 1.1002260204393288
O -1.4958791526030937 2.8054251876370264 12.107907079560672
O 0.7317409728881067 4.097750349256627 12.10736030355067
O 0.737190081791307 1.5225351450538265 12.108440868970272
O -0.7480406615038933 1.5157784853750262 5.503493337837071
O -0.7534897704070932 4.090993689577826 5.502412772417471
O 1.4795794639873068 2.8081036469946263 5.502946561827072
