40   
   
Al 0.0038221215605456 -0.0006998618004545 1.8324726373500888
Al 0.0260653984394544 -0.0047727881995455 12.496758322649914
Al -1.411953767908243 4.202616016333908 4.679916394580202
Al 0.0101744501417551 1.7379129425042903 4.676678335059512
Al 1.4334944746296563 4.202002003928411 4.674439187691176
Ga 1.526866315370344 0.8658377460715901 9.650181592308824
Ga 4.372314557908243 0.8652237336660932 9.644704385419798
In 2.950186339858245 3.3299268074957107 9.64794244494049
Al 0.0059507084701632 3.3816898222821368 2.4615485596630253
Al 2.9544100815298373 1.6861499277178629 11.863072220336974
Ga 0.0173299579051296 3.379606188396814 7.917200059188013
Ga 2.943030832094871 1.6882335616031858 6.407420720811987
Ga 0.01494376 -0.002736325 7.16461548
Al 2.929246365 -0.000632095 -0.00563851
Ga -1.46400973 2.537288295 0.00333342
Ga 1.465236635 2.5366562000000004 -0.00230509
O 1.4712004416046311 2.536183342196352 3.6093042599686314
O 0.008759398030326 5.07075293278826 3.6126341082091007
O -1.4549072359152713 2.536814759906559 3.6149367283051657
O 4.415268025915272 2.5310249900934414 10.709684051694834
O 1.489160348395369 2.5316564078036485 10.715316520031369
O 2.9516013919696737 -0.0029131827882587 10.711986671790898
O 0.028482607635336 3.3775640467756287 13.264210911882019
O 2.9318781823646645 1.6902757032243714 1.06040986811798
O 0.0077423477099904 -0.001417687355628 3.7119804021571383
O 0.0221451722900096 -0.004054962644372 10.61725055784286
O -1.3849872504030307 4.1841695693462455 1.1946880581867063
O 0.0029147040147459 1.7787843376839876 1.191527928825479
O 1.3919797817454975 4.18357033433578 1.189342670865405
O 1.5683810082545029 0.8842694156642203 13.135278109134596
O 4.345348040403032 0.8836701806537551 13.129932721813292
O 2.957446085985255 3.2890554123160127 13.13309285117452
O -1.56269802756265 4.292769978285427 8.411944299449429
O 0.0179136357890377 1.5533978346571742 8.408345387213474
O 1.599849921725594 4.292087539699895 8.405856706937373
O 1.3605108682744067 0.7757522103001062 5.918764073062627
O 4.523058817562649 0.7750697717145741 5.912676480550571
O 2.9424471542109627 3.514441915342826 5.916275392786523
O 0.013307543634928 3.3803427254348763 5.988699364097936
O 2.9470532463650723 1.687497024565124 8.335921415902066
