40   
   
In 0.97633369984 5.95857877979 -0.02475152752
In 4.38999839516 3.09427287521 4.80562034252
In 1.73434452124 1.43948278029 4.82613727116
In 3.63198757376 7.613368874709998 -0.04526845616
Ga 3.67771806202 1.43021699051 7.59360428707
Ga 1.7204024572 7.640735496189999 2.74413698571
Ga 4.36005378302 5.94239813801 2.73449674727
Ga 1.0380667362 3.1285543486900003 7.603244525510002
Ga 1.72756830044 7.726240981479998 6.71318707461
Ga 3.66058372338 1.3390352862199997 1.8819809535700005
Ga 1.0216243996399998 3.18237275048 1.89115084865
Ga 4.36652762418 5.88290351722 6.70401717953
Ga 0.94624845897 0.29910727635 9.66532333245
Ga 4.47535340497 8.785215859549998 4.777146027610001
In 1.80862749777 4.8104240673500005 4.80518845001
Ga 3.61297436617 4.27389906855 9.63728091005
O 4.468268869559999 6.06990224337 8.600384223130002
O 0.94159232202 3.00773556793 3.78972109329
O 3.58228165096 1.52689836887 3.779375339810001
O 1.82757954062 7.5507394424299985 8.610729976610001
O 2.81530424704 0.08805111037 6.073197446490001
O 2.5653160247 8.972936458529999 1.2053596857700002
O 5.192165312039999 4.59209713787 1.20442079949
O 0.1884549597 4.46889043103 6.07413633277
O 5.21856736909 7.562601651949999 6.122538098640001
O 0.16304975219 1.49895353885 1.33027635808
O 2.81809812429 3.02686854095 1.3101709798800003
O 2.56351899699 6.03468664985 6.142643476840001
O 0.12189977714 7.498127329809998 1.1466323470500002
O 5.25783440612 1.56235568629 5.977029385690001
O 2.61679907614 2.97069283231 5.98761031085
O 2.76293510712 6.08979018379 1.13605142189
O 1.96694846478 1.5587576151500002 8.367808139260001
O 3.43992217818 7.51717733045 3.49952520378
O 0.78530630738 6.079887394650001 3.51933661738
O 4.62156433558 2.99604755095 8.34799672566
O 4.47683318833 0.01619060063 8.68757628398
O 0.93380333067 9.06188869437 3.838062507020001
O 3.55996061593 4.53604926763 3.8375939641
O 1.85067590307 4.54203002737 8.6880448269
