80   
   
Ga 1.74113616398 7.821574189729998 6.78534688026
In 7.108595133980001 7.80241398973 6.75494310526
In 3.70862943118 1.3600144946899997 1.90264403422
In 9.07608840118 1.3408542946899995 1.87224025922
Ga 1.0314653017 3.22167712953 1.91106807836
In 6.3989242717 3.20251692953 1.88066430336
Ga 4.418300293460001 5.95991155489 6.77692283612
In 9.78575926346 5.94075135489 6.74651906112
Ga 0.98216131371 6.0295916505600005 -0.027520597165
In 6.349620283710001 6.0104314505600005 -0.057924372165
Ga 4.4456544862900005 3.1378837844400005 4.8583888521650005
Ga 9.81311345629 3.1187235844400005 4.827985077165
In 1.7559446774500005 1.46041840716 4.879764616785
Ga 7.123403647450001 1.4412582071599995 4.849360841785
Ga 3.7275812625500007 7.742877457839999 9.740755058215
Ga 9.09504023255 7.723717257839998 9.710351283215
Ga 0.95836258962 0.30762745857 9.77374732398
Ga 6.3258215596200005 0.28846725857 9.74334354898
In 4.525051930100001 8.895596765569998 4.82719304818
In 9.8925109001 8.876436565569998 4.79678927318
In 1.8270216707 4.870937680769999 4.85715855488
Ga 7.194480640700001 4.851777480769999 4.82675477988
Ga 3.65639284902 4.33228654337 9.74378181728
In 9.02385181902 4.31312634337 9.71337804228
In 3.72565605095 1.45455583235 7.678361153905
Ga 9.09311502095 1.43539563235 7.647957378905
In 1.7341373694100002 7.733480529469999 2.771767016175
In 7.10159633941 7.714320329469999 2.741363241175
In 4.411821527049999 6.01851750135 2.762806113155
Al 9.77928049705 5.99935730135 2.732402338155
Al 1.0479718933100002 3.16951886047 7.687322056925
Ga 6.415430863310001 3.15035866047 7.656918281925002
O 4.52111631859 6.14998114417 8.694506576665
O 9.88857528859 6.13082094417 8.664102801665
O 0.95048765145 3.04564914881 3.831027694455
O 6.31794662145 3.0264889488099995 3.800623919455
O 3.628951851330001 1.55073553077 3.821261503115
O 8.99641082133 1.5315753307700002 3.790857728115
O 1.84265211871 7.64489476221 8.704272768004998
O 7.210111088709999 7.62573456221 8.673868993004998
O 2.8532501531500003 0.09499047425 6.141426778185
O 8.220709123150002 0.07583027425 6.111023003185
O 2.58893886297 9.08172663169 1.215171543175
O 7.95639783297 9.06256643169 1.184767768175
O 5.25700249965 4.652820879249999 1.216142529435
O 10.62446146965 4.633660679249999 1.185738754435
O 0.18518651647 4.52389622669 6.1404557919250005
O 5.55264548647 4.50473602669 6.1100520169250006
O 0.11413176701 7.586582791369999 1.156342871835
O 5.48159073701 7.567422591369999 1.125939096835
O 5.3271658868700005 1.5895611876899998 6.043621026805
O 10.69462485687 1.5704009876899998 6.013217251805
O 2.64844167291 3.01112500237 6.053655647585
O 8.015900642910001 2.99196480237 6.023251872585
O 2.79285598097 6.165018976690001 1.146308251055
O 8.16031495097 6.145858776690001 1.115904476055
O 5.279852157760001 7.66011544564 6.18822781386
O 10.647311127759998 7.64095524564 6.15782403886
O 0.16333964088 1.51724642804 1.3445842330600002
O 5.530798610880001 1.49808622804 1.31418045806
O 2.85259442508 3.06634964944 1.32367821996
O 8.22005339508 3.04718944944 1.2932744449600002
O 2.59059737356 6.11101222424 6.2091338269600005
O 7.95805634356 6.09185202424 6.178730051960001
O 1.99142296861 1.58278698158 8.461158241345
O 7.35888193861 1.56362678158 8.430754466345
O 3.4771726538700003 7.610909008179998 3.535734853095
O 8.84463162387 7.591748808179998 3.505331078095
O 0.7882428872700001 6.15349304098 3.556305329395
O 6.15570185727 6.13433284098 3.525901554395
O 4.6803527352100005 3.04020294878 8.440587765045
O 10.04781170521 3.02104274878 8.410183990045
O 4.53736732668 0.02538918522 8.78523516842
O 9.90482629668 0.00622898522 8.75483139342
O 0.9350165853200002 9.17074259378 3.87735422258
O 6.30247555532 9.15158239378 3.84695044758
O 3.602560193840001 4.59513723462 3.87886206772
O 8.97001916384 4.57597703462 3.84845829272
O 1.86982371816 4.600994544379999 8.78372732328
O 7.23728268816 4.581834344379999 8.753323548280001
