30   
   
O 1.5701727693 0.01673134922 3.4304140799
O 1.7435893732999996 3.07580408434 3.42499537454
O -0.7964601301 1.36175397894 3.42697726806
O 0.7722104267 1.38458587566 10.28714621546
O -1.7905809199 3.0641203910599994 10.28302402194
O 3.5266592306999995 0.04218643078 10.2907456901
O 4.109719678266273 1.5150331845821372 8.001841330873795
O 1.761327632266273 0.1381181497021374 8.003300505513796
O 1.7430867788662727 2.8600558143021373 7.998404519033795
O 3.317766185666272 2.8584855210221374 1.1395539964337966
O 3.336007039066273 0.1365478564221374 1.1444499829137966
O 0.9693741396662732 1.4815704861421373 1.1410131710737963
O 1.5464256603337267 2.978819473857863 12.571128418926202
O -0.8019663856662731 1.6019044389778627 12.572587593566201
O -0.8202072390662732 4.323842103577862 12.567691607086205
O 0.7544721677337269 4.322271810297861 5.708841084486203
O 0.7727130211337266 1.6003341456978626 5.713737070966204
O -1.5939198782662731 2.9453567754178627 5.710300259126203
Ga -0.00089531865 0.00363592631 2.04413390103
Ga -0.00389974365 0.01583702131 8.903643636029999
Ga -0.00511353135 0.02076626369 11.67488556897
Ga -0.00210910635 0.00856516869 4.815375833969999
In 2.5386515903162734 1.5019377616721374 6.615561152003797
Ga 2.5356471653162727 1.5141388566721374 13.475070887003795
Ga 2.5404422276162726 1.4946659090521377 2.5272933499437964
Ga 2.5374378026162727 1.5068670040521377 9.386803084943795
Ga -0.0246424276162734 2.965724050947862 11.184848240056205
Ga -0.0216380026162734 2.953522955947862 4.3253385050562025
Ga -0.0228517903162734 2.958452198327863 7.096580437996203
Ga -0.0198473653162734 2.946251103327863 0.2370707029962033
