80   
   
Ga 10.854160999695 7.36653e-06 1.17958591486
Ga 10.854151659695 3.0925673065300003 1.17959569986
Al 23.127825404695002 1.633653e-05 1.16451365486
Ga 23.127816064695 3.0925762765300004 1.16452343986
In -0.0565938846950001 -2.23653e-06 4.62625206514
Ga -0.0566032246950002 3.0925577034700003 4.626261850140001
In 12.217070520304999 6.73347e-06 4.61117980514
Al 12.217061180304999 3.0925666734700004 4.61118959014
Al 4.717324127195 1.54628285153 1.18712693736
In 4.717314787195 4.638842791529999 1.18713672236
Ga 16.990988532195 1.54629182153 1.1720546773599998
Ga 16.990979192195 4.63885176153 1.1720644623599998
Al 6.080233647805 1.5462822184700002 4.61872082764
Ga 6.080224307805 4.638842158469999 4.61873061264
Ga 18.353898052804997 1.54629118847 4.6036485676400005
Ga 18.353888712805 4.63885112847 4.60365835264
Al 9.309544353665 1.5462848795300002 3.98047354648
Al 9.309535013665 4.638844819529999 3.98048333148
In 21.583208758665 1.54629384953 3.96540128648
Ga 21.583199418665 4.63885378953 3.96541107148
Ga 1.488013421335 1.54628019047 1.82537421852
Al 1.4880040813350002 4.638840130469999 1.82538400352
Ga 13.761677826335 1.54628916047 1.81030195852
In 13.761668486335001 4.63884910047 1.81031174352
Ga 3.1727168211650003 4.2453e-07 3.98800478398
Ga 3.172707481165 3.09256036453 3.98801456898
Ga 15.446381226164998 9.39453e-06 3.97293252398
In 15.446371886164998 3.0925693345300003 3.97294230898
Al 7.624850293835002 4.70547e-06 1.81783319602
Al 7.624840953835002 3.0925646454700004 1.81784298102
Ga 19.898514698835 1.367547e-05 1.80276093602
Al 19.898505358835003 3.09257361547 1.80277072102
O 9.505265947205 5.74011e-06 2.53127301586
O 9.505256607205 3.0925656801100003 2.53128280086
O 21.778930352205 1.471011e-05 2.51620075586
O 21.778921012205 3.0925746501100004 2.51621054086
O 1.292301167795 -6.1011e-07 3.27456496414
O 1.292291827795 3.0925593298900003 3.27457474914
O 13.565965572795 8.35989e-06 3.2594927041399995
O 13.565956232795 3.0925682998900004 3.2595024891399995
O 3.3684290747050003 1.54628122511 2.53881403836
O 3.368419734705 4.63884116511 2.53882382336
O 15.642093479704998 1.54629019511 2.52374177836
O 15.642084139704998 4.638850135109999 2.52375156336
O 7.429128700295003 1.5462838448900005 3.26703372664
O 7.429119360295004 4.63884378489 3.26704351164
O 19.702793105295 1.54629281489 3.25196146664
O 19.702783765295003 4.63885275489 3.25197125164
O 8.934783190075 4.07235e-06 5.1680247765
O 8.934773850075 3.0925640123500004 5.1680345615
O 21.208447595075 1.304235e-05 5.1529525165
O 21.208438255075002 3.09257298235 5.1529623015
O 1.862783924925 1.05765e-06 0.6378132035
O 1.862774584925 3.09256099765 0.6378229885
O 14.136448329925 1.002765e-05 0.6227409435
O 14.136438989925 3.0925699676500003 0.6227507285
O 2.797946317575 1.54627955735 5.175565799
O 2.797936977575 4.638839497349999 5.175575584
O 15.071610722575002 1.54628852735 5.160493539
O 15.071601382575002 4.638848467349999 5.160503324
O 7.999611457425002 1.54628551265 0.630281966
O 7.999602117425002 4.638845452649999 0.630291751
O 20.273275862425 1.54629448265 0.615209706
O 20.273266522424997 4.63885442265 0.615219491
O -1.04765029885 1.54627715276 4.32488091178
O -1.04765963885 4.63883709276 4.32489069678
O 11.22601410615 1.54628612276 4.30980865178
O 11.22600476615 4.63884606276 4.30981843678
O 11.84520807385 1.54628791724 1.48096685322
O 11.84519873385 4.63884785724 1.48097663822
O 24.11887247885 1.54629688724 1.46589459322
O 24.11886313885 4.63885682724 1.46590437822
O 5.08918657365 1.66776e-06 4.31733988928
O 5.08917723365 3.0925616077600004 4.31734967428
O 17.36285097865 1.063776e-05 4.30226762928
O 17.362841638650004 3.09257057776 4.30227741428
O 5.70838054135 3.46224e-06 1.48849809072
O 5.70837120135 3.09256340224 1.48850787572
O 17.98204494635 1.243224e-05 1.47342583072
O 17.982035606350003 3.0925723722400003 1.47343561572
