20   
   
Ga 10.81017516323 5.10757e-06 1.19205110098
Al -0.0873202932300001 -2.61757e-06 4.66180963902
Ga 4.69370061323 1.55058273257 1.19773257598
Ga 6.02914537677 1.55058153743 4.65614118402
Al 9.25197973492 1.55058361029 4.01399573849
In 1.4708662550799998 1.55058065971 1.83987802151
Al 3.1355140649200006 -5.4471e-07 4.01966419349
In 7.587340805080002 3.03471e-06 1.83419654651
O 8.8705291222 1.85695e-06 5.21056030475
O 1.8523257478 6.3305e-07 0.64330043525
O 2.7540545722000003 1.55057948195 5.21624177975
O 7.968791417800001 1.55058478805 0.63763198025
O 9.45673426399 3.63483e-06 2.55371067068
O 1.26612060601 -1.14483e-06 3.3001500693199994
O 3.3402597139900005 1.55058125983 2.55939214568
O 7.38258627601 1.55058301017 3.2944816143199995
O -1.07306609417 1.5505779144 4.35781263809
O 11.79591208417 1.5505863556 1.49606112191
O 5.043408455830001 2.894e-07 4.352131163089999
O 5.679446414169999 2.2006e-06 1.50172957691
