40   
   
In 0.9879071604199998 6.138003954020001 -0.03152107944
In 4.529460874579999 3.2066722509800005 4.940487049440001
In 1.7876605664999998 1.49317490226 4.9625706561600005
In 3.7297074685 7.851501302740002 -0.05360468616
In 3.79774230169 1.49360771048 7.809442222190001
In 1.7506190642099997 7.875294342460002 2.81465634581
In 4.488456072889999 6.136680654080001 2.80732901619
In 1.05990529301 3.2322213988600006 7.816769551810002
In 1.75640387445 7.96725812704 6.89666333327
In 3.782238328449999 1.3940469701000002 1.9352333747300003
In 1.04457270569 3.28194113576 1.9419225950700003
In 4.494069497210001 6.07936396138 6.88997411293
Al 0.97484537157 0.32097934455 9.9405694305
Al 4.596410022730001 9.06581775983 4.905160185500001
Al 1.85186753993 4.96383277463 4.937453540700001
Al 3.71938785437 4.422964329750001 9.9082760753
O 4.598021016789999 6.274127041980001 8.840183826430001
O 0.96178736331 3.1037225366800008 3.8947302655700007
O 3.69988145087 1.5890295642200003 3.886445772030001
O 1.85992692923 7.78882001444 8.848468319970001
O 2.91088031823 0.10712786146 6.24690827903
O 2.62041851707 9.24843731352 1.2308803569700002
O 5.35508488623 4.74813479546 1.2353580490300002
O 0.17621394907 4.60743037952 6.24243058697
O 5.369621531279999 7.81122639167 6.29039363755
O 0.16264922032 1.5450984788900002 1.3666151844500003
O 2.90429956572 3.1279754099900003 1.3450899233500002
O 2.62797118588 6.2283494605700005 6.311918898650001
O 0.09758682819 7.72094466772 1.17133328309
O 5.43284808151 1.6339452223 6.14714852091
O 2.69466830099 3.0739979561200004 6.155752069090001
O 2.83576660871 6.2808919339000004 1.16272973491
O 2.02673775364 1.6203241524800005 8.6050562282
O 3.53015487756 7.755246339440002 3.5921973058
O 0.78861164836 6.265669706640002 3.6133237486
O 4.76828098284 3.10990078528 8.5839297854
O 4.629601233259999 0.04191735875 8.936315192970001
O 0.93096308174 9.33652309425 3.937992377030001
O 3.66545806498 4.686940098910001 3.9431081783700006
O 1.89510625002 4.69150035409 8.93119939163
