40   
   
Al 9.176224247328914 -0.0196979711871579 14.111264881272705
Al 5.17935211 0.00652347 0.070498265
Al 9.587972236421088 1.5184019699371578 2.5668282974772967
In 4.408620126421086 1.511878499937158 2.496330032477297
Ga 5.39221023625 -0.00543886875 5.54632045625
In 1.892007060171086 -0.0071295513128421 4.282472286227296
Al 0.283810835 -0.015949785 7.301096255
Al 8.821460703578914 0.0002392600628421 4.984894562522703
In 2.87137661 1.4990708199999998 7.340228065
Ga 8.05072872 1.50559429 7.41072633
In 9.034318829828914 -0.0117230786871579 10.460716753772703
In 5.53411565375 -0.01341376125 9.19686858375
Al 3.9259194285789136 -0.0222339949371579 12.215492552522702
Ga 2.1048651864210863 -0.0190918900628421 9.758294477477298
Al 6.513485203578914 1.492786610062842 12.254624362522703
In 11.692837313578911 1.499310080062842 12.325122627522703
O 3.57020727675 0.00172449615 1.2891251835500002
O 2.243932495571086 -0.0269072847128421 13.335831642427296
O 6.05427042075 1.45614427695 1.32669172115
O 11.233453708349998 1.58360845655 1.39750060035
O 8.682393394428916 0.0080546547128421 1.4073573975727032
O 7.35611861325 -0.02057712615 13.45406385645
O 10.047187019250002 1.55504430305 13.49476093885
O 4.86800373165 1.42758012345 13.42395205965
O 7.212315870328913 -0.0045597137871579 6.203521481072703
O 5.31841941915 -0.00129192465 3.64803542995
O 9.696379014328912 1.449860067012842 6.241088018672703
O 4.5168580819289135 1.564277306612842 6.170900367872704
O 1.9657978772710865 -0.0112764954128421 6.180757312527297
O 10.430605536828912 0.0050382339128421 3.766267643972703
O 13.121673942828911 1.580659663112842 3.806964726372703
O 7.942490655228913 1.453195483512842 3.736155847172703
O 0.4957203531710863 -0.0238908639128421 10.976921396027295
O 8.960528012728913 -0.0075761345871579 8.562431727472703
O 2.9797834971710855 1.4305289168871578 11.014487933627295
O 8.158966784771087 1.557993096487158 11.085296812827297
O 5.60790647085 -0.01756070535 11.09515361005
O 3.7140100196710866 -0.0142929162128421 8.539667558927297
O 6.4050784256710855 1.561328512987158 8.580364641327298
O 11.584599358071086 1.446911273387158 8.650552292127298
