80   
   
In 7.6515790725 2.545146605 7.664002205
In 2.5496800475 7.6519041749999985 7.662133925
In 7.6581945725 7.6517527099999985 2.561733485
In 7.6540515825 7.649487209999998 7.666229834999998
In 2.5538230375 7.654169674999999 2.557637575
In 7.6557220625 2.547412105 2.559505855
In 2.5472075375 2.54756357 7.659906295
In 2.5513505275 2.54982907 2.555409945
In 7.65471869182 4.75135449636 5.11271636616
In 2.55696265682 9.86037756636 0.00635173616
Al 7.65919794318 5.44781031864 0.00852297384
In 5.10421903332 7.651982496499999 4.7648279532
In -0.00676800168 2.5477933565 9.863000763199999
In -0.00071594832 7.654091353499998 5.4549435468
In 4.75353229562 5.09868974362 7.662789543119999
In 9.85957431062 -0.00580232638 2.56016147312
In 5.4452543143800005 -0.00597956862 7.661118956879998
In 2.55068341818 5.44796178364 5.10892341384
In 7.65672543318 0.34346971364 0.00629534384
In 2.55449014682 4.75603696136 0.00412410616
In 5.101183076680001 2.5473337835 5.4568118268
In 0.00342704168 7.656356853499998 0.3504471968
In -0.00262501168 2.5500588565 4.7585044132
Al 5.45186981438 5.10062653638 2.55885023688
In 0.3408827793800001 -0.00356260362 7.65702304688
In 4.755202775620001 -0.00338536138 2.55606556312
In 2.54821090818 0.34362117864 5.10669578384
In 5.105326066680001 2.5495992835 0.3523154768
In 0.3474982793800001 5.10304350138 2.55475432688
In 7.65719120182 9.85569510136 5.11494399616
In 5.1000760433200005 7.649716996499999 9.8693243032
In 9.85790383062 5.09627277862 7.66688545312
O 6.325918603340001 3.98562498051 6.70392014626
O 3.8767350123 9.09027390071 8.62347236706
O 8.985412805899998 6.21212616249 1.60252491614
O 6.325438853460001 6.21026565629 8.62418202054
O 6.696761548140001 6.32443967112 3.99985224082
O 8.610675450500002 3.87118190188 9.10481939058
O 1.5918693747 8.980125992719998 6.222475107019999
O 8.614198901660004 6.32254313428 6.226952711579999
O 3.98972516589 6.6921955871300005 6.33570112618
O 9.09701499985 8.610098129609998 3.89047637706
O 6.21060429035 1.58562312539 8.98959741494
O 6.216160818910001 8.61037385787 6.33832453182
O 3.87948350666 6.21369129949 3.51771963374
O 6.3286670977 1.10904237929 1.59816741294
O 1.2199893041 3.98719011751 8.61911486386
O 3.87996325654 3.98905062371 1.59745775946
O 3.50864056186 3.87487660888 6.221787539179999
O 1.5947266595 6.328134378119999 1.11682038942
O 8.613532735299998 1.21919028728 3.99916467298
O 1.59120320834 3.87677314572 3.99468706842
O 6.21567694411 3.50712069287 3.88593865382
O 1.10838711015 1.58921815039 6.33116340294
O 3.99479781965 8.613693154609999 1.23204236506
O 3.98924129109 1.58894242213 3.88331524818
O 1.22816256834 9.09464805051 1.59755551626
O 8.982777027300001 3.98578183071 3.52084429706
O 3.8744257709 1.10793702249 6.70069772614
O 1.22273779846 1.11060751629 3.51336213054
O 1.58577451314 1.2202505311199998 9.09802505082
O 3.5129194155 8.98020497188 3.99845476058
O 6.697911389700001 3.87563392272 1.11984703702
O 3.51149784666 1.22288499428 1.11613282158
O 9.09576718089 1.58770351713 1.2330730561799998
O 3.98602796485 3.5059089896099995 8.98864918706
O 1.11284825535 6.69464619539 3.88323278494
O 1.11345976391 3.51071571787 1.22750464182
O 8.977239541660001 1.10466822949 8.624084263739999
O 1.2226250827 6.21353444929 6.70079548294
O 6.3309763391 9.09137925751 3.52094205386
O 8.98266431154 9.08870876371 6.70827764946
O 8.619627596860001 8.979065748879998 1.12361472918
O 6.692482694500001 1.21911130812 6.22318501942
O 3.5074907203 6.32368235728 9.10179274298
O 6.693904263340001 8.97643128572 9.10550695842
O 1.1096349291100005 8.61161276287 8.98856672382
O 6.219374145150001 6.693407290390001 1.2329905929399998
O 9.09255385465 3.50467008461 6.33840699506
O 9.09194234609 6.68860056213 8.994135138179999
