80   
   
Al 1.68646026681 7.63263543179 6.64764727297
Al 6.92161212181 7.61699847179 6.62371613297
Al 3.61436228377 1.3284656153099998 1.86684143329
In 8.84951413877 1.31282865531 1.84291029329
Al 1.00214577179 3.1448014598300005 1.87371882933
Ga 6.237297626789999 3.1291644998300003 1.84978768933
In 4.29867677879 5.8162995872700005 6.64076987693
Al 9.53382863379 5.80066262727 6.616838736929999
In 0.954550080125 5.88831200324 -0.0208580229
Al 6.189701935125 5.87267504324 -0.0447891629
Ga 4.329023319875 3.0623521217600005 4.7612282979
In 9.564175174875 3.046715161760001 4.7372971579
In 1.7065655485349998 1.42280824992 4.777828640219999
Al 6.941717403535 1.40717128992 4.75389750022
Ga 3.620787421465 7.55434552508 9.54152242478
Al 8.855939276464998 7.53870856508 9.517591284780002
In 0.92403725487 0.29242783887 9.564625708289999
Al 6.15918910987 0.27679087887 9.540694568289998
In 4.403228155989999 8.68467295683 4.73556739513
Al 9.63838001099 8.66903599683 4.711636255129999
In 1.77397825409 4.753146682430001 4.75861611633
Ga 7.00913010909 4.7375097224300005 4.73468497633
In 3.55328715677 4.22395411327 9.54157698709
Al 8.788439011769999 4.20831715327 9.51764584709
In 3.624699028585 1.4157658697700002 7.51831038097
Al 8.859850883584999 1.4001289097700005 7.49437924097
Ga 1.684003844595 7.55010331433 2.72039486749
Al 6.919155699595 7.53446635433 2.6964637274899994
Ga 4.296644864735 5.87701636997 2.71311444777
In 9.531796719735 5.86137940997 2.68918330777
Ga 1.012058008445 3.08885281413 7.52559080069
In 6.247209863445 3.0732158541300003 7.501659660689999
O 4.396785791245 6.000286855550001 8.517339502789998
O 9.631937646244996 5.9846498955500005 8.493408362789998
O 0.921198350775 2.97119813435 3.75210967315
O 6.156350205775 2.95556117435 3.72817853315
O 3.534476133155 1.5129845402300002 3.74422471791
O 8.769627988154998 1.4973475802300005 3.72029357791
O 1.783508008865 7.45850044967 8.525224458029998
O 7.018659863865 7.442863489669999 8.50129331803
O 2.7762308592450005 0.08903009219 6.01238836759
O 8.011382714244998 0.07339313219 5.98845722759
O 2.5186376698149995 8.86846836251 1.19935895123
O 7.753789524815 8.85283140251 1.1754278112299998
O 5.1234252889950005 4.545276765190001 1.19953446959
O 10.358577143995 4.52963980519 1.17560332959
O 0.171443240065 4.41222168951 6.01221284923
O 5.406595095065 4.396584729510001 5.98828170923
O 0.105766371315 7.40714822027 1.13786642203
O 5.340918226315 7.39151126027 1.11393528203
O 5.188401684625 1.5499264000300002 5.920617204149999
O 10.423553539625 1.53428944003 5.89668606415
O 2.574911648165 2.93651554407 5.928703671229999
O 7.810063503165 2.9208785840700004 5.90477253123
O 2.719256407775 6.020559076230001 1.1297799549499998
O 7.954408262775 6.00492211623 1.10584881495
O 5.13865298832 7.477503248679999 6.06709587764
O 10.37380484332 7.461866288679999 6.04316473764
O 0.157003573 1.48047201972 1.3170730954
O 5.392155428 1.4648350597200002 1.2931419554
O 2.7790898997 2.9946731039200003 1.3008253988
O 8.0142417547 2.9790361439200006 1.2768942588
O 2.51656666162 5.963302164480001 6.08334357424
O 7.751718516619999 5.947665204480001 6.05941243424
O 1.932313326475 1.53931465854 8.282476096
O 7.167465181475 1.52367769854 8.258544955999998
O 3.383306718765 7.430739890259998 3.46970811728
O 8.618458573765 7.41510293026 3.4457769772799995
O 0.761485709665 6.00606936866 3.48570392408
O 5.996637564664999 5.99043240866 3.4617727840799994
O 4.554134335574999 2.9639851801400003 8.266480289199999
O 9.789286190574998 2.9483482201400006 8.242549149199998
O 4.416015095539999 0.0197212427 8.60105108898
O 9.65116695054 0.0040842827 8.57711994898
O 0.90258196046 8.952134602300001 3.80250381802
O 6.137733815459999 8.9364976423 3.77857267802
O 3.50694507148 4.48569410482 3.80308236006
O 8.742096926479999 4.47005714482 3.77915122006
O 1.81165198452 4.48616174018 8.600472546939999
O 7.04680383952 4.47052478018 8.57654140694
