40   
   
Ga 12.092376874196942 2.049433885224387 2.969051220041752
In 8.54459489240158 1.976690781732422 11.665551266768656
Ga 5.173504929023806 2.034048289927536 1.8107027860620428
Al 5.067489654023806 1.955987884927536 12.941512081062045
Ga 8.63294095490158 2.041741119232422 2.389876854268656
In 12.004030811696943 1.9843835477243872 12.244725632541751
Ga 9.480824151696943 0.5056410577243869 4.842808627541752
Al 0.7703920549015814 0.440873904232422 9.887845099268656
In 6.876719121696941 2.0183796327243866 4.882992292541752
In 3.3642755649015808 1.971656664232422 9.869222574268656
Al 8.579933315988043 2.0027109156916167 7.9552816501794466
Ga 12.05703845061048 2.0234137512651924 6.679320836630961
Ga 5.120497291523806 1.995018087427536 7.376107433562043
Ga 7.795279171523807 0.5343197824275359 -0.0846157614379571
Ga 2.5972906315238062 0.5162755974275359 -0.0258095714379571
In 10.389162681523809 2.065102542427536 -0.1032382864379571
O 7.794154052188045 0.5691169618916165 3.6504283659794474
O 2.456653293610479 0.4991388534651923 11.08108780643096
O 12.110752856610478 2.0629643564651925 1.039710793830961
O 8.526218909988044 1.9631603104916169 13.594891692979447
O 2.5965743729880444 0.4293319234916166 3.7083721103794463
O 7.655050694410477 0.3954421850651923 11.02141917083096
O 10.284282221788045 2.0386684114916167 3.6325507419794474
O 10.352689544810477 1.9874562554651924 11.00205174483096
O 5.155128999901477 2.0205178503431918 3.7400430634895927
O 5.085865686901476 1.9695183857431915 11.012171802889592
O 4.2839608347880445 0.4527997544916166 1.1665706893794467
O 5.96766423261048 0.3719743540651923 13.56322059183096
O 9.481540513988044 0.5925847928916166 1.1086269449794466
O 11.165243911810478 0.5117593924651923 13.50527684743096
O 6.981599685188044 2.0448138248916163 1.147203263379447
O 13.655372081410478 1.981310842065192 13.48739922343096
O 4.281710442101477 0.5223939617431911 8.63665879648959
O 5.969096903901477 0.545861792743191 6.0948573754895925
O 8.59830929840158 2.016241386932422 6.0259412239686565
O 12.038662468196941 2.009883280024387 8.60866126284175
O 9.480107842901475 0.4186972933431911 8.57699016088959
O 0.7715172247014768 0.4060767543431911 6.152801119889592
O 6.771838611701477 1.9919454113431907 8.618781172489593
O 3.469156075101477 1.9980908247431912 6.133433693889592
