80   
   
In 1.7224893254799998 7.780170543509999 6.75644599639
In 7.06347865548 7.76560460851 6.72892397639
Al 3.68820067046 1.35550676255 1.89603348691
Ga 9.029190000460002 1.34094082755 1.8685114669100005
In 1.0226856185600002 3.20507562445 1.90339301187
Ga 6.36367494856 3.19050968945 1.8758709918700005
In 4.388004377380001 5.930601681610002 6.74908647143
In 9.72899370738 5.91603574661 6.72156445143
Ga 0.97225780997 5.998502195235001 -0.02577880374
Ga 6.3132471399700005 5.983936260235001 -0.05330082374
Ga 4.41857832503 3.1239465647650007 4.83887723874
Ga 9.75956765503 3.1093806297650004 4.81135521874
In 1.7435477748300003 1.4531077274650002 4.858469304420001
In 7.08453710483 1.438541792465 4.8309472844200005
In 3.69767887017 7.702916022534998 9.69925108058
Ga 9.038668200170001 7.688350087534999 9.67172906058
In 0.94836587343 0.30470115393 9.72930291309
Al 6.28935520343 0.29013521893 9.70178089309
Al 4.49275999055 8.85125544609 4.80892822801
In 9.83374932055 8.83668951109 4.781406208010001
In 1.8114186435500004 4.845638445590001 4.83663306681
Ga 7.152407973550001 4.83107251059 4.80911104681
In 3.62970722043 4.31031815443 9.70159807429
Al 8.97069655043 4.295752219430001 9.67407605429
Al 3.70210531577 1.448321522055 7.64518947931
Al 9.04309464577 1.433755587055 7.61766745931
Al 1.7176549719700005 7.693399282205 2.76132195499
In 7.05864430197 7.678833347205 2.73379993499
In 4.3835644486700005 5.989754055505 2.75345538171
In 9.72455377867 5.975188120505 2.72593336171
In 1.03619583907 3.1519667487550005 7.653056052590002
Al 6.3771851690700005 3.1374008137550007 7.625534032590002
O 4.48917076695 6.119339302755001 8.657930688890001
O 9.83016009695 6.1047733677550005 8.63040866889
O 0.94127230891 3.029499399385 3.814440598810001
O 6.282261638910001 3.0149334643850003 3.78691857881
O 3.60777342281 1.544739625485 3.80581345305
O 8.948762752809998 1.530173690485 3.7782914330500006
O 1.82266965305 7.604099076655 8.666557834650002
O 7.16365898305 7.589533141655 8.63903581465
O 2.83593689299 0.095553597635 6.114632931370001
O 8.176926222989998 0.080987662635 6.087110911370001
O 2.56789999359 9.035557509785 1.21257796673
O 7.908889323590001 9.020991574785 1.18505594673
O 5.2265126114900005 4.632325031885 1.21409178737
O 10.567501941490002 4.617759096885 1.1865697673700002
O 0.17732427509 4.498786075535 6.1131191107300005
O 5.51831360509 4.484220140535 6.08559709073
O 0.10659892351 7.546271979164999 1.1524783656100002
O 5.447588253509999 7.531706044165 1.12495634561
O 5.29643171491 1.584301928415 6.018818581290001
O 10.63742104491 1.569735993415 5.99129656129
O 2.62973338861 2.9960998847150004 6.0276992512100005
O 7.97072271861 2.981533949715 6.00017723121
O 2.77329724981 6.1344740228650005 1.14359769569
O 8.11428657981 6.119908087865 1.11607567569
O 5.24417481839 7.622652466799998 6.163855816460001
O 10.58516414839 7.608086531799999 6.136333796460001
O 0.16056909737 1.5090629904400004 1.33875827674
O 5.501558427370001 1.4944970554400003 1.3112362567400002
O 2.8352545258700004 3.052218646940001 1.3196098783400003
O 8.17624385587 3.0376527119400007 1.2920878583400002
O 2.56948938989 6.0794968103 6.18300421486
O 7.91047871989 6.064930875300001 6.15548219486
O 1.97592609329 1.574256262805 8.42351977108
O 7.31691542329 1.559690327805 8.395997751080001
O 3.4517958950300005 7.572769389875 3.5226419313200004
O 8.79278522503 7.558203454874999 3.49511991132
O 0.7773569820300001 6.120816005375001 3.5414734245200004
O 6.11834631203 6.106250070375001 3.51395140452
O 4.65036500629 3.0262096473050004 8.40468827788
O 9.99135433629 3.011643712305 8.37716625788
O 4.51044319043 0.02716059654 8.74711965576
O 9.85143252043 0.01259466154 8.719597635760001
O 0.92070535257 9.12214815546 3.8616763392400006
O 6.26169468257 9.10758222046 3.834154319240001
O 3.5789235456700004 4.572992042360001 3.863697208200001
O 8.91991287567 4.558426107360001 3.8361751882
O 1.85222499733 4.57631670964 8.745098786800002
O 7.193214327330001 4.56175077464 8.7175767668
