80   
   
In 10.81089921598 4.54183e-06 1.201925221385
In 10.810891090979998 3.12309974183 1.201935801385
In 23.05182578598 1.061183e-05 1.186870736385
Al 23.05181766098 3.12310581183 1.186881316385
Ga -0.1119386759800003 -3.23183e-06 4.712823943615001
Ga -0.1119468009800002 3.12309196817 4.712834523615
Al 12.128987894019998 2.83817e-06 4.697769458615
Ga 12.128979769019997 3.12309803817 4.697780038615001
Ga 4.690431868479998 1.56154910683 1.209457753885
Al 4.690423743479999 4.68464430683 1.209468333885
Al 16.93135843848 1.56155517683 1.194403268885
Ga 16.93135031348 4.68465037683 1.194413848885
Al 6.008520546519999 1.5615474031699998 4.705301991115
Al 6.008512421519999 4.68464260317 4.705312571115001
Al 18.249447116519995 1.5615534731699998 4.690247506115
Al 18.249438991519998 4.68464867317 4.6902580861150005
In 9.23682648629 1.56154943951 4.055189772015001
Ga 9.23681836129 4.684644639509999 4.055200352015
In 21.47775305629 1.56155550951 4.0401352870150005
In 21.477744931289998 4.68465070951 4.040145867015
Al 1.46212592871 1.56154707049 1.859569972985
In 1.46211780371 4.68464227049 1.859580552985
Al 13.70305249871 1.56155314049 1.844515487985
Ga 13.70304437371 4.68464834049 1.844526067985
Al 3.1163672637900004 -1.19549e-06 4.062711724515
In 3.1163591387900005 3.1230940045099995 4.062722304515001
Ga 15.357293833789997 4.87451e-06 4.047657239515001
Ga 15.357285708789997 3.1231000745099995 4.047667819515
In 7.58259327621 2.50549e-06 1.852037440485
In 7.582585151209998 3.12309770549 1.852048020485
Ga 19.82351984621 8.57549e-06 1.836982955485
Ga 19.82351172121 3.12310377549 1.836993535485
O 9.449407118279998 2.93977e-06 2.578874135955
O 9.449398993279997 3.12309813977 2.578884715955
O 21.69033368828 9.00977e-06 2.563819650955
O 21.69032556328 3.12310420977 2.5638302309550003
O 1.2495534217199995 -1.62977e-06 3.335875029045
O 1.2495452967199998 3.12309357023 3.335885609045
O 13.49047999172 4.44023e-06 3.320820544045
O 13.490471866719998 3.1230996402299995 3.320831124045
O 3.3289397707799995 1.5615475047699998 2.586406668455
O 3.32893164578 4.68464270477 2.586417248455
O 15.569866340779997 1.56155357477 2.571352183455
O 15.569858215779997 4.68464877477 2.5713627634550003
O 7.37001264422 1.56154900523 3.328353076545
O 7.370004519220002 4.68464420523 3.328363656545
O 19.61093921422 1.56155507523 3.313298591545
O 19.61093108922 4.68465027523 3.313309171545
O 8.84882391925 8.3205e-07 5.264954753525
O 8.84881579425 3.12309603205 5.264965333525001
O 21.08975048925 6.90205e-06 5.249900268525001
O 21.08974236425 3.12310210205 5.249910848525
O 1.85013662075 4.7795e-07 0.649794411475
O 1.85012849575 3.12309567795 0.649804991475
O 14.09106319075 6.54795e-06 0.634739926475
O 14.091055065749998 3.12310174795 0.634750506475
O 2.728356571749999 1.56154539705 5.272487286025
O 2.728348446749999 4.6846405970500005 5.272497866025001
O 14.96928314175 1.56155146705 5.257432801025001
O 14.969275016749997 4.68464666705 5.257443381025
O 7.970595843249998 1.56155111295 0.6422724589750001
O 7.97058771825 4.68464631295 0.642283038975
O 20.21152241325 1.56155718295 0.627217973975
O 20.21151428825 4.68465238295 0.627228553975
O -1.09672111651 1.5615440876 4.4057891840100005
O -1.09672924151 4.6846392876 4.40579976401
O 11.14420545349 1.5615501576 4.39073469901
O 11.14419732849 4.684645357599999 4.39074527901
O 11.795673531509998 1.5615524224 1.5089705609900002
O 11.795665406509999 4.6846476224 1.50898114099
O 24.03660010151 1.5615584924 1.49391607599
O 24.03659197651 4.6846536924 1.4939266559900002
O 5.02374623099 -4.774e-07 4.39825665151
O 5.02373810599 3.1230947226 4.39826723151
O 17.264672800989995 5.5926e-06 4.38320216651
O 17.264664675989998 3.1231007926 4.38321274651
O 5.675214309009999 1.7874e-06 1.51649251349
O 5.67520618401 3.1230969874 1.51650309349
O 17.91614087901 7.8574e-06 1.5014380284900002
O 17.91613275401 3.1231030574 1.50144860849
