80   
   
In 7.252520035 2.4146058625 7.2381729075
Ga 2.416204405 7.2385684075 7.2514554875
Al 7.239796385000002 7.2513426425 2.4143139925
Ga 7.246508925 7.2447929625 7.2445467375
Ga 2.409491865 7.2451180875 2.4212227425
In 7.245807495000002 2.4211555425 2.4079401625
In 2.422215515 2.4083813075 7.2450816575
In 2.415502975 2.4149309875 2.4148489125
Ga 7.24656696548 4.5045215297 4.82581002956
In 2.4035387954800003 9.3350337547 0.00885986456
Ga 7.23903691452 5.1679766553 -0.00355587456
Al 4.82754394228 7.24540090324 4.50442891334
Al 0.00996307228 2.40243956824 9.33519657834
In -0.00184767228 7.238285591759999 5.16824931666
In 4.50590151264 4.82616386526 7.2452839925
In 9.33550460264 0.00875100026 2.4017686675
Ga 5.168834037360001 -0.00317669526 7.2379705725
Al 2.4154449345200004 5.1552024203 4.83358562044
Al 7.245048024520002 0.3377895553 -0.00992970456
In 2.40954990548 4.5048466547 0.00248603456
Al 4.83446795772 2.4143230467600003 5.1549667366600005
In -0.00856021228 7.244835271759999 0.33801657166
Ga 0.00325053228 2.40898924824 4.504963833340001
In 5.156110387360001 4.83356008474 2.4141116575
Al 0.33852951736 -0.00940125026 7.2448793225
In 4.505200082640001 0.00252644526 2.4086774175
Al 2.42145604452 0.3250153203 4.82721179044
Al 4.827755417720001 2.4208727267600003 0.32473399166
In 0.3258058673600001 4.82733552974 2.4210204075
Al 7.24055585548 9.3347086297 4.83218385956
Ga 4.834256482280001 7.23885122324 9.334661658340002
In 9.33620603264 4.83238842026 7.2383752425
O 5.9936837692600005 3.77633158024 6.3336828465
O 3.6716504047 8.601068214159998 8.15954038862
O 8.4961087357 5.89207960444 1.50263654138
O 5.99358684034 5.87983047616 8.152629348499998
O 6.335154960120001 5.9924767704 3.77608127579
O 8.160947332440001 3.66977771508 8.60065689239
O 1.50465133036 8.495093846919998 5.89228589421
O 8.154276127080001 5.9919615426 5.87946506261
O 3.777735107920001 6.33395147401 5.99244842626
O 8.60255743136 8.15947022501 3.66942451874
O 5.89324950944 1.5030724463899998 8.49478340866
O 5.88148770128 8.152815729590001 5.99183277134
O 3.66832813074 5.88339236976 3.3257128035
O 5.990361495299999 1.0586557358399995 1.49985526138
O 1.1659031643000002 3.76764434556 8.156759108619998
O 3.668425059660001 3.77989347384 1.5067663015
O 3.32685693988 3.6672471796 5.88331437421
O 1.50106456756 5.989946234920001 1.05873875761
O 8.157360569640002 1.16463010308 3.76710975579
O 1.50773577292 3.6677624074 3.77993058739
O 5.8842767920800005 3.32577247599 3.66694722374
O 1.05945446864 1.50025372499 5.98997113126
O 3.768762390560001 8.15665150361 1.16461224134
O 3.7805241987200007 1.50690822041 3.66756287866
O 1.15065559926 8.60684380524 1.5167326815
O 8.5012534947 3.78365534916 3.31602506362
O 3.6785278657 1.04911826944 6.33340420638
O 1.16258089034 1.04996850116 3.3229315235
O 1.51757409012 1.1495154354 8.60684894079
O 3.31791916244 8.50028994008 3.78370672739
O 6.334254420360001 3.67768098192 1.04877056921
O 3.32327017708 1.1620995676 1.04976723761
O 8.60733819792 1.51653860901 1.14893310126
O 3.78497656136 3.31650889001 8.500192183739998
O 1.05022133944 6.333584671390001 3.67783324366
O 1.05048175128 3.3229537545899994 1.16213494634
O 8.511356300740001 1.05288014476 8.1426629685
O 1.1607584053000002 5.87606860084 6.34337058638
O 5.9834840343 8.61060568056 3.3259914436199995
O 8.499431009659999 8.609755448839998 6.3364641265
O 8.144437809880001 8.510208514599999 1.05254670921
O 6.3440927375600005 1.15943400992 5.87568892261
O 3.32775747964 5.98204296808 8.610625080789998
O 6.33874172292 8.497624382400002 8.60962841239
O 1.05467370208 8.143185340989998 8.510462548739998
O 5.877035338640001 6.34321505999 1.15920346626
O 8.611790560560001 3.3261392786099995 5.98156240634
O 8.61153014872 6.336770195410001 8.49726070366
