30   
   
Al -0.00095931979812 0.00187061395128 1.9791093519942
Al -0.00420368479812 0.00819692395128 8.672344626994198
Ga -0.00552941020188 0.01078200604872 11.4073611980058
Al -0.00228504520188 0.00445569604872 4.714125923005801
Al 2.4605147049655964 1.4406008930809804 6.4407509107251455
Ga 2.4572703399655964 1.4469272030809803 13.133986185725144
Al 2.4624333445618367 1.4368596651784202 2.4825322067367455
Al 2.4591889795618367 1.4431859751784204 9.175767481736747
In -0.0158569745618364 2.86096420482158 10.900989753263252
Al -0.0126126095618364 2.85463789482158 4.207754478263254
Al -0.0139383349655964 2.85722297691902 6.942771049274855
Ga -0.0106939699655964 2.85089666691902 0.2495357742748542
O 3.4234650602932004 0.0159032478164 3.347590710374
O 0.749898841536 1.3159682191500002 3.3457143074676
O -1.7251653493292 2.9627892480336 3.3435993046584
O 1.696677528464 2.98185565085 10.0378076525324
O -0.7661039106708001 1.3166676119664 10.0385198053416
O 1.5078918397068 0.0151163821836 10.040282689626
O 0.9470934550569164 1.4362665169461002 7.807829419104945
O 3.2113728662997167 2.7546984982797 7.807355866198545
O 3.221089205434516 0.1347152871633005 7.809592303389346
O 1.7115751832277164 0.1227620599797005 1.1159272512633458
O 1.7018588440929163 2.7427452710961 1.113690814072546
O 3.975854594470517 1.4411940413133004 1.115453698356946
O -1.5292782244705163 2.8566298286867 12.268068261643055
O 0.7350011867722835 4.175061810020299 12.267594708736654
O 0.7447175259070836 1.5550785989038995 12.269831145927457
O -0.7647964962997164 1.5431253717202995 5.576166093801454
O -0.7745128354345162 4.1631085828367 5.573929656610654
O 1.4994829149430833 2.8615573530539 5.575692540895054
