80   
   
Al 7.0636900725 2.3532414125 7.038901190000001
Al 2.3527293975 7.0445597525 7.057981585
In 7.0430787075 7.0624204625 2.345551765
In 7.054070647500001 7.0543806975 7.04675766
Al 2.3417374575 7.0525995175 2.35677569
Ga 7.0526981325 2.3612811775 2.337695295
Al 2.3623488225 2.3434204675 7.050125115
Al 2.3513568825 2.3514602325 2.34891922
In 7.0540385109 4.38815346612 4.69169223754
Al 2.3320858959 9.08751157112 0.00956673754
In 7.0417383291 5.0355481738800005 -0.00844517754
Al 4.69715660058 7.0540368115200005 4.382084674140001
Al 0.01642671558 2.33503681652 9.08665802414
Ga -0.00268974558 7.04312245848 5.032672600860001
Ga 4.38851853 4.69823275824 7.049204614400001
In 9.088487265 0.01495418324 2.3289183244
Al 5.037520365 -0.00157087824 7.0398216906
In 2.3513890190999995 5.01768746388 4.70398464246
Ga 7.0513577541 0.33440888888 -0.01630164754
Ga 2.3417053209 4.38637228612 0.00171026754
In 4.70827092942 2.35180411848 5.01359220586
Al -0.01368168558 7.05116222348 0.33146670586
Al 0.00543477558 2.34307658152 4.385452129140001
Al 5.016908999999999 4.7076081717600005 2.3464722656
Al 0.336179115 -0.01139182324 7.0510456156000005
Al 4.387146015 0.00513323824 2.3401422494
Al 2.3610084440999994 0.31654817888 4.69612817246
Ga 4.697278989419999 2.35984388348 0.31238631086
Al 0.31556775 4.69778722676 2.3576961906
Al 7.0444190859 9.08929275112 4.69954870754
Ga 4.70814854058 7.04599704652 9.08329056914
In 9.08985978 4.70805370324 7.0379806894
O 5.836562184929999 3.67792072099 6.160208226780001
O 3.57443192937 8.371323000749998 7.9411055973
O 8.26607362563 5.74076410565 1.4565913117
O 5.836501085069999 5.724594497609999 7.93128706422
O 6.16482733008 5.83601069701 3.67135924309
O 7.94814090408 3.5751167505300003 8.36457383669
O 1.46327646492 8.26727684267 5.73639430271
O 7.937324125919998 5.83619803479 5.71686481751
O 3.6774581775 6.165605412310001 5.83102588909
O 8.369906392499999 7.9469138156699985 3.56617716721
O 5.7425781963 1.46456738153 8.26290285319
O 5.723626058699999 7.93751571549 5.82908629051
O 3.5688653450699994 5.72792020901 3.23546865322
O 5.830995600629999 1.0345179292499995 1.4545712827
O 1.1393539043699998 3.66507682435 7.9390855683
O 3.5689264449299998 3.68124643239 1.4643898157800002
O 3.24060019992 3.56983023299 5.72431763691
O 1.4572866259199997 5.83072417947 1.03110304331
O 7.942151065079998 1.13856408733 3.65928257729
O 1.4681034040799998 3.56964289521 3.678812062490001
O 5.7279693525 3.24023551769 3.56465099091
O 1.0355211375 1.4589271143300002 5.829499712790001
O 3.662849333699999 7.941273548469998 1.13277402681
O 3.6818014713 1.46832521451 3.56659058949
O 1.1146095699299998 8.37727882599 1.47808272678
O 8.27440066437 3.68804442575 3.2208193073
O 3.5853437406299995 1.02176411065 6.161164661700001
O 1.1337873200699995 1.0216740326099998 3.23344862422
O 1.48409744508 1.11701070201 8.37593259309
O 3.2261882890799995 8.27447485553 3.68244833669
O 6.1632451999199995 3.58399826767 1.01610801271
O 3.23461036092 1.13327756979 1.01902637751
O 8.3774269125 1.48232683731 1.11073959909
O 3.6891765075 3.22791382067 8.27075051721
O 1.0206255813 6.16392548653 3.58077735319
O 1.0209122937 3.2345952504899995 1.13124785051
O 8.290817960070001 1.02856210401 7.91759415322
O 1.1310268656299998 5.71779650425 6.174857572700001
O 5.82008378937 8.384076819349998 3.2345122183
O 8.27164020993 8.384166897390001 6.1622282557800006
O 7.921330084919998 8.288830227990001 1.01974428691
O 6.17923924092 1.13136607447 5.7132285433100005
O 3.2421823300799995 5.82184266233 8.37956886729
O 6.170817169079999 8.27256336021 8.376650502490001
O 1.0280006175 7.923514092689999 8.28493728091
O 5.7162510225 6.1779271093300006 1.12492636279
O 8.384801948699998 3.24191544347 5.8148995268100006
O 8.384515236299999 6.171245679510001 8.264429029489998
