40   
   
Ga 8.227532572851404 -0.0537602493879869 13.419283263758793
Ga 5.019089345 -0.0096074 -0.020579675
Ga 9.180531634648599 1.439937413137987 2.3061754199912055
Al 4.161442289648597 1.4495448131379869 2.3267550949912055
Ga 4.9652394875 -0.02437832375 5.24386575625
Al 1.6311465921485968 -0.0146909631120131 4.087708823741206
Ga -0.07179981 -0.019694565 7.019260575
Al 8.317282335351402 -0.0291420431379869 4.645207545008794
Ga 2.4405459350000003 1.43961757 7.013121989999999
Ga 7.45963528 1.43001017 6.992542315
Ga 8.263432477851401 -0.0439129668879869 9.909652976258794
Ga 4.9293395825 -0.03422560625 8.753496043749998
Ga 3.226393180351403 -0.0392292081379869 11.685047795008794
Al 1.5772967346485969 -0.0294618868620131 9.352154254991204
Al 5.738738925351401 1.4200829268620132 11.678909210008792
Al 10.757828270351405 1.4104755268620133 11.658329535008791
O 3.4007747869000005 -0.00988110805 1.17928011875
O 1.5421148277485968 -0.0391122237120131 12.791591936741204
O 5.812626702100001 1.39105854155 1.17338707715
O 10.8319401329 1.49858040835 1.15313950235
O 8.352464242251402 -0.0194917062879869 1.205769863258794
O 6.493804283100001 -0.04872282195 12.81808168125
O 9.1066438579 1.46896179845 12.81169755285
O 4.0873304271 1.36143993165 12.83194512765
O 6.698967777251403 -0.0294157511879869 5.845067338758794
O 4.9839074381 -0.01925773685 3.41885800675
O 9.110819692451402 1.3715238984120133 5.839174297158793
O 4.091954433251404 1.4982605652120131 5.8600860723587935
O 1.6124786415485968 -0.0198115500120131 5.912716573241206
O 9.935596893451406 -0.0288683350879869 3.445347751258794
O 12.548436468251404 1.4888162853120133 3.4389636228587936
O 7.529123037451407 1.3812944185120133 3.4592111976587936
O -0.0410178234514031 -0.0297355949120131 10.552014048741203
O 8.282100428451402 -0.0387923799879869 8.084645226758793
O 2.3708340917485966 1.371204054687987 10.546121007141203
O 7.390147522548598 1.4787259214879869 10.525873432341204
O 4.9106716319000006 -0.03934619315 10.57850379325
O 3.1956112927485973 -0.0291881788120131 8.152294461241206
O 5.808450867548597 1.4884964415879869 8.145910332841206
O 10.827316126748595 1.3617597747879868 8.124998557641206
