40   
   
Al 3.447688622830756 -0.007747532913493 3.050498768157893
Al 6.851924837169243 -0.054276417086507 11.673185151842109
In -0.0144840675 -0.0129271175 1.85739597
In -0.1013884725 -0.0904898225 13.00177179
Al 6.924345174669243 0.010359170413493 2.386205301842107
Al 3.375268285330756 -0.072383120413493 12.337478618157892
Ga 11.238951200330755 1.534450834586507 4.816918593157893
Al 9.464412549669241 1.4930796904134933 9.792554956842107
Ga 4.256669549669244 1.4723831954134932 9.860296876842106
Al 6.031208200330756 1.5137543395865072 4.884660513157892
In 6.880893075165377 -0.0284221827067465 7.958393359078947
Al 3.418720384834621 -0.0336017672932535 6.765290560921053
In -0.05793627 -0.05170847 7.42958388
In 5.207743 0.020696495 -0.06774192
In 2.598003645 1.53442899 -0.023234225
In 7.805746644999998 1.555125485 -0.090976145
O 5.248018351765378 -0.0050541485067465 3.6709121230789457
O 5.051595108234621 -0.0569698014932535 11.052771796921053
O 3.4627520541894814 0.0056966703206764 1.1188068107662152
O 6.8368614058105175 -0.0677206203206764 13.604877109233785
O 7.742101746810516 1.4679976814793236 3.6486072684337847
O 2.546245431589482 1.3962133941206762 11.095499182766215
O 7.753519003189481 1.5388363485206766 11.028608201566216
O 12.949375318410516 1.6106206358793238 3.5817162872337844
O -0.0295474977 -0.0263713197 3.7890877788
O -0.0863250423 -0.0770456203 11.0700799812
O 8.600672203565379 0.0257724880932535 1.1014987750789464
O 1.6989412564346218 -0.0877964380932535 13.622185144921055
O 11.30259599436538 1.6215786376932535 1.0773351810789464
O 9.40029843138948 1.5278783471206767 13.532989306366215
O 4.193024755634621 1.3852553923067463 13.599880288921053
O 6.095322318610519 1.4789556828793236 1.1442261636337847
O 8.681222804099999 -0.0257287983 8.578806714
O 1.6183906559 -0.0362951517 6.144877206
O 6.895956402369243 -0.014977979886507 6.026701403042107
O 3.403657057630756 -0.047045970113493 8.696982516957894
O 11.1753063033 1.4473230321 8.556501857999999
O 9.5285268751 1.4582810334999998 6.0521207532
O 4.3203144467 1.5595109979 6.120713612
O 5.9670938749 1.5485529965000002 8.625094716799998
