80   
   
Ga 7.060074675 2.3500294075 7.023915215000001
Ga 2.353099765 7.032930567499999 7.04998985
Ga 7.032971395 7.0560574625 2.339241615
Ga 7.048348215 7.0452931875 7.034205720000001
Ga 2.3377229450000003 7.0436948425 2.3550257450000003
Ga 7.044697855 2.3607936825 2.32895111
Ga 2.364826225 2.3376667875000003 7.039699345000001
Ga 2.349449405 2.3484310625000004 2.3447352400000003
Ga 7.04732043428 4.383765497960001 4.68087866066
Al 2.32496870428 9.07743093296 0.01198919066
Ga 7.03034881572 5.033085647040001 -0.01268593566
Ga 4.69198995624 7.0452259857 4.37535817336
Ga 0.02384478624 2.3268353107000004 9.07581590336
Ga -0.00116724624 7.0313994243 5.0296574216400005
Ga 4.3873103254000005 4.69063932934 7.038025853340001
Ga 9.0789084154 0.01850244434 2.31698711334
Ga 5.037590574600001 -0.00294313434 7.025588706660001
Ga 2.3504771857200004 5.009958752040001 4.69806229934
Ga 7.04207527572 0.3378218670400001 -0.02297644066
Ga 2.33669516428 4.38216715296 0.00169868566
Ga 4.70580766376 2.3484982643000003 5.003582786640001
Ga -0.01654406624 7.0421636993 0.3346933166400001
Ga 0.00846796624 2.3375995857 4.38085179836
Ga 5.010487294600001 4.70308492066 2.34091510666
Ga 0.3423421246 -0.01530575434 7.041372836660001
Ga 4.383659965400001 0.00613982434 2.3327712433400003
Ga 2.36220364572 0.3146949720400001 4.687771794340001
Ga 4.69043084376 2.3592625393000004 0.3086186816400001
Ga 0.3152388446 4.69072230066 2.3566992366600004
Ga 7.03559397428 9.07902927796 4.691169165660001
Ga 4.70736677624 7.0344617107000005 9.07032227836
Ga 9.0825587754 4.70300194934 7.0222417233400005
O 5.833112374120001 3.672903195960001 6.14826775947
O 3.5734483424400003 8.35818555096 7.93144115035
O 8.25415201156 5.73723104144 1.4495825670500002
O 5.83378132188 5.71599083664 7.91806092313
O 6.15764982924 5.82992918159 3.6635133777500006
O 7.944068767240002 3.5700866373100006 8.347603207470002
O 1.46300791356 8.25441050329 5.73165292013
O 7.929767539960001 5.82988430281 5.704582894650001
O 3.67536642918 6.156505947200001 5.8229134431
O 8.358824856620004 7.939454600479999 3.55741577258
O 5.74221715978 1.46103484652 8.247122392020001
O 5.71808560442 7.9273152308 5.8199007923
O 3.56468524588 5.72082105404 3.23067320053
O 5.8243492775600005 1.0355386990400002 1.44749980965
O 1.1436456084400002 3.6564932085600006 7.92935839295
O 3.56401629812 3.67773341336 1.46088003687
O 3.24014779076 3.5637950684100006 5.71542758225
O 1.45372885276 5.82363761269 1.03133775253
O 7.93478970644 1.13931374671 3.64728803987
O 1.46803008004 3.5638399471900004 3.67435806535
O 5.722431190819999 3.2372183028 3.5560275169000004
O 1.03897276338 1.45426964952 5.821525187420001
O 3.65558046022 7.93268940348 1.13181856798
O 3.67971201558 1.4664090192000003 3.5590401677000005
O 1.1107606441200002 8.36656863096 1.47937828947
O 8.26504643244 3.686048665960001 3.21040241035
O 3.58600684156 1.01884036644 6.15004029705
O 1.13488251188 1.01912871164 3.22859044313
O 1.48950465924 1.11153850659 8.36397110775
O 3.22171703724 8.26375207231 3.67871373747
O 6.1546060035600005 3.5822736182900003 1.0106141801300002
O 3.23086872996 1.13302217781 1.01511241465
O 8.366964519179998 1.4843690622000003 1.1018747031
O 3.69067968662 3.22106392548 8.25787350258
O 1.01986542978 6.15470028152 3.57823292202
O 1.01918679442 3.2304531058 1.1304303123
O 8.287036975879998 1.0271556190400002 7.89956267053
O 1.13275118756 5.70767558404 6.168538549650001
O 5.811790778440001 8.374883883559999 3.22890066295
O 8.262915108119998 8.374595538359998 6.150350516870001
O 7.90829296076 8.28218574341 1.01496985225
O 6.17608058276 1.12997217769 5.700227222530001
O 3.24319161644 5.8114506317100005 8.368326779870001
O 6.16692889004 8.26070207219 8.363828545350001
O 1.03083310082 7.9093551878 8.277066256900001
O 5.70711793338 6.172660324520001 1.12106745742
O 8.377932190220001 3.23902396848 5.800708037980001
O 8.378610825580001 6.1632711442 8.2485106477
