80   
   
In 7.4622971775 2.483380645 7.46285723
In 2.4862513325 7.456441865 7.4676610399999985
Al 7.4602134725 7.462035145 2.49218248
In 7.4608979925 7.457938995 7.46687175
In 2.4855668125 7.460538015 2.49297177
In 7.4616126575 2.487476795 2.48816796
In 2.4876505175 2.481883515 7.46364652
Ga 2.4869659975 2.485979665 2.48895725
In 7.46135046958 4.6344379272000005 4.97724686764
Al 2.4846201045800003 9.6115952972 0.00736140764
In 7.46047566042 5.3150740128 0.00310357236
Al 4.9731858551400006 7.4595170432 4.64164288964
In 0.00062290014 2.4793654132 9.61310692964
In -0.00136771014 7.457462836799999 5.31898992036
In 4.63599828212 4.96980945016 7.46531280672
In 9.61135960712 0.00084438016 2.48581972672
Al 5.31394941288 -0.00454529016 7.46119094328
Al 2.4865135204200004 5.309480732800001 4.97858213236
In 7.461874845419999 0.3405156628 -0.00091094764
Al 2.48601928958 4.6370369472 0.00334688764
In 4.97467813486 2.4844016168 5.3141861103600005
In -0.00205223014 7.4615589868 0.34430065036
In -6.161986e-05 2.4834615632 4.63841765964
In 5.31186570788 4.974109209839999 2.49051619328
In 0.3393027528800001 -0.00604242016 7.4619802332799985
In 4.63671294712 -0.00065274984 2.48660901672
In 2.4879127054200003 0.3349223828 4.97456761236
In 4.97399361486 2.4884977668 0.33949684036
In 0.33721904788 4.972612079839999 2.49130548328
In 7.45995128458 9.608996277199997 4.98126138764
Ga 4.973870375140001 7.455420893199999 9.61633215964
Al 9.61064494212 4.97130658016 7.46452351672
O 6.16836578597 3.8865869221 6.5289529572800005
O 3.77939358369 8.8588864973 8.403829502
O 8.75388748451 6.0603690203 1.5556035872
O 6.16801312083 6.0539542103 8.401186453519998
O 6.52553672316 6.16721339926 3.89414946546
O 8.39735999612 3.77589216214 8.86661499282
O 1.5504609376800005 8.750700689859999 6.06599082758
O 8.39630231804 6.165990398739999 6.06281721414
O 3.889186762200001 6.522712084859999 6.17326452026
O 8.86297875904 8.396609306459998 3.78613384018
O 6.05988784136 1.54667648554 8.75574429022
O 6.057606612400001 8.39379877314 6.17442984934
O 3.77949820403 6.0573317379 3.42687604272
O 6.16847040631 1.0850321627 1.551999498
O 1.19397650549 3.8835496397 8.400225412799998
O 3.779850869170001 3.8899644497 1.55464254648
O 3.4223272668399995 3.77670526074 6.06167953454
O 1.55050399388 6.16802649786 1.08921400718
O 8.397403052319998 1.19321797014 3.88983817242
O 1.55156167196 3.77792826126 3.89301178586
O 6.0586772278000005 3.42120657514 3.78256447974
O 1.08488523096 1.5473093535399998 6.16969515982
O 3.88797614864 8.39724217446 1.2000847097799998
O 3.8902573776000007 1.55011988686 3.78139915066
O 1.19163542097 8.863744292100002 1.55906749728
O 8.754754908690002 3.8899214273 3.424336422
O 3.78132452951 1.0802173903 6.5270676272
O 1.19408112583 1.0819948803 3.42327195352
O 1.5529737681600002 1.1870617692599998 8.86561350546
O 3.42062963112 8.753049532139999 3.89672953282
O 6.525822262680001 3.78173561986 1.08649774758
O 3.42237032304 1.19403106874 1.08490271414
O 8.864548087200001 1.55374701486 1.19377144026
O 3.89041580404 3.4164576764599994 8.75759788018
O 1.08315747636 6.52383385554 3.78585883022
O 1.0836746174000005 3.42183944314 1.1965153493399998
O 8.756228569030004 1.0801743679 8.396761502719999
O 1.19310908131 6.0539972327000005 6.531492578
O 6.166539460490001 8.8637012697 3.4287613727999995
O 8.75378286417 8.861923779700001 6.53255704648
O 8.394890221839999 8.756856890739998 1.09021549454
O 6.52723435888 1.19086912786 6.05909946718
O 3.42204172732 6.16218304014 8.86933125242
O 6.52549366696 8.74988759126 8.870926285859998
O 1.0833159028 8.39017164514 8.76205755974
O 6.057448185960001 6.52746098354 1.19823111982
O 8.86470651364 3.42008480446 6.16997016978
O 8.8641893726 6.52207921686 8.759313650659998
