80   
   
Al -0.0689994325 -0.0405369975 5.9149722275
Ga -0.2069982975 -0.1216109925 17.744916682499998
Al 4.4759857525 2.8357518625 5.9866287625
Al 4.3379868875 2.7546778675 17.8165732175
Al 3.0339260225 0.0855362825 5.9519297125
Al 2.8959271575 0.0044622875 17.7818741675
Al 1.3730602974999997 2.7096785825 5.9496712775
Al 1.2350614324999998 2.6286045875 17.779615732499998
Al 0.0 0.0 0.0
In -0.137998865 -0.081073995 11.829944455
Al 4.544985185 2.87628886 0.071656535
Al 4.40698632 2.795214865 11.90160099
Al 3.102925455 0.12607328 0.036957485
In 2.96492659 0.044999285 11.86690194
Al 1.4420597299999998 2.75021558 0.03469905
Al 1.3040608649999998 2.669141585 11.864643505
Ga -0.1074277543835 1.771004982654 2.9682985707295
Al -0.2454266193835 1.6899309876539998 14.798243025729501
Al -1.7682934793835 4.395147282654 2.9660401357295
Ga -1.9062923443835 4.314073287654001 14.795984590729502
Al 2.9954977006165 1.897078262654 3.0052560557295
Ga 2.857498835616499 1.816004267654 14.8352005107295
Ga 1.3346319756164997 4.521220562654 3.0029976207295
Al 1.1966331106164996 4.440146567654001 14.8329420757295
Al 1.4114886193834997 0.8981366023459999 8.896344934270498
Ga 1.2734897543834995 0.8170626073459999 20.726289389270494
Al -0.2493771056165003 3.522278902346 8.894086499270498
Al -0.3873759706165003 3.441204907346 20.724030954270496
Al 4.514414074383501 1.024209882346 8.933302419270499
Ga 4.3764152093835005 0.943135887346 20.7632468742705
Al 2.8535483493835003 3.648352182346 8.931043984270499
Ga 2.7155494843835006 3.567278187346 20.760988439270495
O -0.130045768357 1.7577169548735 4.907226466904
O -0.268044633357 1.6766429598735 16.737170921904
O -1.790911493357 4.3818592548735005 4.904968031904
O -1.928910358357 4.300785259873501 16.734912486903998
O 2.972879686642999 1.8837902348735 4.944183951904
O 2.8348808216429995 1.8027162398735 16.774128406903998
O 1.3120139616429995 4.5079325348735 4.941925516904
O 1.1740150966429996 4.426858539873501 16.771869971904
O 1.4341066333569996 0.9114246301265 6.957417038096
O 1.2961077683569997 0.8303506351264999 18.787361493096
O -0.2267590916430003 3.5355669301265 6.955158603095999
O -0.3647579566430003 3.4544929351265 18.785103058096
O 4.537032088357001 1.0374979101265 6.994374523095999
O 4.399033223357001 0.9564239151265 18.824318978096
O 2.8761663633570005 3.6616402101265 6.992116088095999
O 2.7381674983570004 3.5805662151265 18.822060543096
O 1.3888706054099995 0.8848485745654999 10.835272830445
O 1.2508717404099996 0.8037745795654999 22.665217285445
O -0.2719951195900003 3.5089908745655 10.833014395445002
O -0.4099939845900003 3.4279168795655 22.662958850444998
O 4.4917960604100005 1.0109218545655 10.872230315445
O 4.35379719541 0.9298478595655 22.702174770444998
O 2.8309303354100006 3.6350641545655 10.869971880445
O 2.6929314704100005 3.5539901595655 22.699916335445
O -0.08480974041 1.7842930104344998 1.029370674555
O -0.22280860541 1.7032190154345 12.859315129555
O -1.7456754654100002 4.4084353104345 1.027112239555
O -1.88367433041 4.3273613154345005 12.857056694555
O 3.0181157145899995 1.9103662904345 1.0663281595549998
O 2.88011684959 1.8292922954345 12.896272614555
O 1.3572499895899994 4.5345085904345 1.064069724555
O 1.2192511245899995 4.4534345954345005 12.894014179555
O -0.03449971625 -0.02026849875 2.95748611375
O -0.17249858125 -0.10134249375 14.78743056875
O 4.51048546875 2.85602036125 3.02914264875
O 4.37248660375 2.77494636625 14.85908710375
O 3.06842573875 0.10580478125 2.99444359875
O 2.93042687375 0.02473078625 14.82438805375
O 1.4075600137499995 2.72994708125 2.99218516375
O 1.2695611487499998 2.64887308625 14.82212961875
O -0.10349914875 -0.06080549625 8.87245834125
O -0.24149801375 -0.14187949125 20.70240279625
O 4.44148603625 2.81548336375 8.944114876249998
O 4.30348717125 2.73440936875 20.77405933125
O 2.99942630625 0.06526778375 8.90941582625
O 2.86142744125 -0.01580621125 20.73936028125
O 1.3385605812499997 2.68941008375 8.90715739125
O 1.2005617162499995 2.60833608875 20.73710184625
