40   
   
Al 0.90138599056 5.576441148390001 -0.00671137772
Al 4.07443343944 2.8901575616100006 4.54294631772
Al 1.60067672712 1.33782024477 4.55049599276
Al 3.37514270288 7.128778465230001 -0.01426105276
Al 3.40455428614 1.32545541791 7.16083518167
Al 1.58442382982 7.144749802970001 2.60524326421
Al 4.04831949454 5.55982520361 2.60019841887
Al 0.94065862142 2.9103800172700005 7.165880027010001
Al 1.5792229860199998 7.21520545958 6.34082943411
Al 3.40562871274 1.2538687997000002 1.7852284001700005
In 0.9421594717 2.9744587792200003 1.7901649285500003
Al 4.042692227060001 5.494615480060001 6.33589290573
Al 0.8532357141 0.2580237342 9.099793146
Al 4.14546240682 8.21484552956 4.52944496276
Al 1.6648829156199998 4.49186213016 4.538727709160001
Al 3.3338152053 3.9810071336 9.0905103996
O 4.131659463059999 5.665163001910001 8.121343394030001
O 0.8621786553799999 2.8063742404100003 3.57631488329
O 3.32671395562 1.4249477112900002 3.5711075625100004
O 1.6671241628200002 7.04658953103 8.126550714810001
O 2.60695488098 0.07205857607 5.724280755190001
O 2.37477908034 8.39616117889 1.1626503947700002
O 4.83078590698 4.301427046570001 1.15960941319
O 0.15094805434 4.16679270839 5.72732173677
O 4.83632976328 7.06885416274 5.7950541198900005
O 0.14581683976 1.39947868838 1.2558790912300002
O 2.61920043136 2.8331087975800004 1.2484241935300002
O 2.3629461716799995 5.63522405354 5.80250901759
O 0.0988802285 7.01273015789 1.0966705462500002
O 4.882486940180001 1.45538906715 5.64448099379
O 2.4177384281 2.7689829061900006 5.649742473050001
O 2.56362874058 5.699136318850001 1.09140906699
O 1.80689515372 1.4412437374100002 7.88461900956
O 3.18570503956 7.02995421643 3.32103308428
O 0.7125879627600001 5.68111496983 3.3284202838800003
O 4.28001223052 2.7900829840100005 7.87723180996
O 4.148580685959999 0.0010679583 8.189555950030002
O 0.84557837604 8.4705572477 3.6356594859700007
O 3.301158779 4.24015773522 3.63272682135
O 1.693000283 4.23146747078 8.192488614650001
