40   
   
Al 3.3369440861344155 0.0049489616643344 2.952032418217423
Ga 6.645718253865584 -0.0052988016643344 11.280581001782576
In -0.00938990625 -0.005065575 1.79217215
Ga -0.06572934375 -0.035459025 12.545205050000002
Al 6.692667785115584 0.0200290733356656 2.319720251782577
Al 3.2899945548844154 -0.0203789133356656 11.912893168217424
In 10.865055009884417 1.4988121366643343 4.669787213217424
Al 9.163718195115583 1.4786081433356657 9.466373386782577
Al 4.134827400115585 1.4585207633356656 9.518755276782576
Al 5.836164214884414 1.4787247566643344 4.722169103217423
Al 6.664498166192208 0.0048323483321672 7.696236844108711
Al 3.318164173807792 -0.0051821883321672 6.536376575891289
Al -0.037559625 -0.0202623 7.1686886
Al 5.028890795 0.02008738 -0.05238189
In 2.508610035 1.47884137 -0.022035465
Al 7.537500829999998 1.49892875 -0.074417355
O 5.077037694292208 0.0101565207321672 3.5551596609087115
O 4.905624645707792 -0.0105063607321672 10.677453759091287
O 3.346709589385608 0.0102171600695804 1.0881732388436507
O 6.635952750614392 -0.0105670000695804 13.144440181156348
O 7.4853032273143905 1.4298442355304195 3.5340056155563486
O 2.486155216685608 1.3898974700695803 10.70658632604365
O 7.5145791826856065 1.5274886644695804 10.654536874443652
O 12.513727193314391 1.5674354299304196 3.4819561639563488
O -0.01915540875 -0.010333773 3.656031186
O -0.05596384125 -0.030190827 10.681346014
O 8.308298075592209 0.0299016259321672 1.0842811273087114
O 1.674364264407792 -0.0302514659321672 13.148332292691288
O 10.917252511992206 1.5678966507321672 1.0613642437087114
O 9.11105396458561 1.5270274440695804 13.075128793643648
O 4.082629898007792 1.3894362492678327 13.127178246291288
O 5.888828445414392 1.4303054559304196 1.1134136963563492
O 8.40459177435 0.0100399074 8.2993640868
O 1.5780705656499998 -0.0103897474 5.9332493332
O 6.674263568865584 0.0101005463356656 5.832377665782578
O 3.3083987711344154 -0.0104503863356656 8.400235754217423
O 10.812857407949998 1.4297276226 8.278210040399998
O 9.21638262605 1.430188843 5.8576181212
O 4.18702500205 1.5276052774000002 5.9103324496
O 5.78349978395 1.527144057 8.3309243688
