80   
   
Ga -0.035182975 -0.040991815 6.0602412925
In -0.105548925 -0.122975445 18.1807238775
Ga 4.8079782600000005 2.833324005 6.1065313975
Ga 4.73761231 2.7513403750000003 18.2270139825
Al 3.21599675 -0.001880725 6.0790894075
In 3.1456308 -0.083864355 18.1995719925
Ga 1.5567985350000002 2.794212915 6.0876832825
Al 1.4864325850000002 2.7122292850000003 18.2081658675
Ga 0.0 0.0 0.0
Al -0.07036595 -0.08198363 12.120482585
In 4.843161235 2.87431582 0.046290105
Al 4.772795285 2.79233219 12.16677269
Ga 3.251179725 0.03911109 0.018848115
In 3.1808137750000003 -0.04287254 12.1393307
In 1.59198151 2.83520473 0.02744199
Ga 1.52161556 2.7532211 12.147924575
Ga -0.0399948152764999 1.856415839221 3.0421314000545
Ga -0.1103607652764999 1.774432209221 15.162613985054499
Al -1.6991930302765 4.652509479221 3.0507252750545
Al -1.7695589802765 4.570525849221 15.1712078600545
Al 3.2111849097235 1.895526929221 3.0609795150545
In 3.1408189597235 1.813543299221 15.1814621000545
In 1.5519866947234997 4.6916205692210005 3.0695733900545
Al 1.4816207447234997 4.609636939221001 15.190055975054499
Al 1.5616103752765 0.8968052607789999 9.1057931749455
Ga 1.4912444252765 0.8148216307789999 21.226275759945498
In -0.0975878397235 3.692898900779 9.1143870499455
Al -0.1679537897235 3.610915270779 21.2348696349455
Ga 4.812790100276501 0.935916350779 9.124641289945501
In 4.742424150276501 0.853932720779 21.2451238749455
In 3.1535918852765006 3.732009990779 9.133235164945502
Al 3.0832259352765004 3.650026360779 21.253717749945498
O -0.0515277944814999 1.842978722264 5.028678495736
O -0.1218937444814999 1.760995092264 17.149161080735997
O -1.7107260094814998 4.639072362264 5.037272370736
O -1.7810919594814998 4.557088732264 17.157754955736
O 3.1996519305185 1.882089812264 5.047526610736
O 3.1292859805185 1.800106182264 17.168009195735998
O 1.5404537155185 4.678183452264 5.056120485736
O 1.4700877655184998 4.596199822264 17.176603070736
O 1.5731433544815 0.910242377736 7.119246079263999
O 1.5027774044815 0.828258747736 19.239728664264
O -0.0860548605185 3.706336017736 7.127839954263999
O -0.1564208105185 3.624352387736 19.248322539264
O 4.824323079481501 0.949353467736 7.138094194263999
O 4.753957129481501 0.867369837736 19.258576779264
O 3.1651248644815007 3.745447107736 7.146688069263999
O 3.0947589144815004 3.663463477736 19.267170654264
O 1.5500773960715 0.8833681438219999 11.092340270627
O 1.4797114460715 0.8013845138219999 23.212822855627003
O -0.1091208189285 3.679461783822 11.100934145627
O -0.1794867689285 3.597478153822 23.221416730627002
O 4.801257121071501 0.922479233822 11.111188385627
O 4.730891171071501 0.840495603822 23.231670970627
O 3.1420589060715005 3.718572873822 11.119782260627002
O 3.0716929560715007 3.636589243822 23.240264845627003
O -0.0284618360714999 1.869852956178 1.055584304373
O -0.0988277860714999 1.787869326178 13.176066889373
O -1.6876600510715 4.665946596178 1.064178179373
O -1.7580260010715 4.583962966178 13.184660764373
O 3.2227178889284995 1.908964046178 1.074432419373
O 3.1523519389285 1.826980416178 13.194915004373
O 1.5635196739284998 4.705057686178001 1.083026294373
O 1.4931537239284998 4.623074056178001 13.203508879373
O -0.0175914875 -0.0204959075 3.03012064625
O -0.0879574375 -0.1024795375 15.15060323125
O 4.8255697475 2.8538199125 3.07641075125
O 4.7552037975 2.7718362825 15.19689333625
O 3.2335882375 0.0186151825 3.04896876125
O 3.1632222875 -0.0633684475 15.16945134625
O 1.5743900225 2.8147088225 3.05756263625
O 1.5040240725 2.7327251925 15.178045221249997
O -0.0527744625 -0.0614877225 9.09036193875
O -0.1231404125 -0.1434713525 21.21084452375
O 4.7903867725 2.8128280975 9.13665204375
O 4.7200208225 2.7308444675 21.25713462875
O 3.1984052625 -0.0223766325 9.10921005375
O 3.1280393125 -0.1043602625 21.22969263875
O 1.5392070475 2.7737170075 9.117803928750002
O 1.4688410975 2.6917333775 21.23828651375
