40   
   
Ga 8.012602752026542 -0.0578045560346649 13.420534412525974
Al 4.910730505 -0.01641714 -0.045341845
Al 8.977960850473456 1.4144108747846649 2.267282064974025
Al 4.067230345473456 1.4308280147846648 2.3126239099740253
Ga 4.8434464825 -0.02832948375 5.2357424075
Ga 1.5845781829734564 -0.0147375364653351 4.092396072474026
Ga -0.08971203 -0.015883125 7.04144567
Ga 8.124742789526543 -0.0379506497846649 4.618727325025974
Al 2.3705121250000003 1.425711645 7.022034925
Al 7.28124263 1.409294505 6.97669308
Ga 8.057458767026544 -0.0498629935346649 9.899811577525972
Al 4.7985904675 -0.03627104625 8.7564652425
Al 3.1243002545265437 -0.0374166347846649 11.705514840025971
Al 1.5172941604734564 -0.0266498802153351 9.373480324974024
Al 5.584524409526544 1.4041781352153353 11.686104095025977
Al 10.495254914526544 1.3877609952153351 11.640762250025972
O 3.3240456983000004 -0.01386378645 1.1662133093
O 1.4733352657734564 -0.0344326114653351 12.823788703274026
O 5.6858608871 1.37006719275 1.1475789941
O 10.5969801043 1.4696343199500002 1.1024979633
O 8.168701684226544 -0.0301679185346649 1.1684189467259745
O 6.3179912517000005 -0.05073674355 12.8259943407
O 8.876624372900002 1.4485218172499998 12.8058071659
O 3.9655051557 1.34895469005 12.8508881967
O 6.538057982826543 -0.0353972962346649 5.830282479325975
O 4.8667716103 -0.02419987125 3.4049665333
O 8.899873171626542 1.3485336829653352 5.811648164125974
O 3.989531378826544 1.4809350901653353 5.857250823325974
O 1.5612530551734565 -0.0188671489653351 5.923171946674025
O 9.711427596226544 -0.0405040033346649 3.4071721707259743
O 12.270060717426546 1.4587545574653351 3.386984995925974
O 7.358941500226543 1.3591874302653353 3.4320660267259746
O -0.0693906462265435 -0.0240965266653351 10.585035479274024
O 8.080783894826544 -0.0457333810346649 8.069035703325975
O 2.292424542573457 1.3598344525346653 10.566401164074025
O 7.203543759773456 1.4594015797346649 10.521320133274026
O 4.7752653397 -0.04040065875 10.5872411167
O 3.103978967173457 -0.0292032337653351 8.161925170674026
O 5.662612088373457 1.470055327034665 8.141737995874028
O 10.572953881173456 1.3376539198346653 8.096135336674028
