40   
   
Ga 7.825268317924524 -0.1039361862795037 13.639083363132505
Ga 5.10655722 -0.029492665 -0.17954692
Ga 9.221844313325475 1.3986121312795037 2.008310890617496
Al 4.115287093325476 1.4281047962795037 2.1878578106174955
Ga 4.83825534375 -0.050929 5.27458153625
Ga 1.493506534575476 -0.0265035937204963 4.182250984367496
Ga -0.357735835 -0.02858178 7.272171275
Ga 8.272438111674527 -0.0682089612795037 4.548869269382504
Ga 2.174610765 1.4188811650000002 7.09582092
Ga 7.281167984999999 1.3893885 6.916274
Ga 8.004136235424525 -0.0896452962795037 10.002997725632504
Ga 4.65938742625 -0.06521989 8.910667173749998
Al 2.808145056674524 -0.0672980762795037 12.000587464382503
Ga 1.225204658325476 -0.0479399287204963 9.636379440617496
Ga 5.340491656674524 1.3801648687204964 11.824237109382503
Ga 10.447048876674526 1.3506722037204963 11.644690189382503
O 3.4116438176500004 -0.0249139148 1.11417721115
O 1.0499140991754758 -0.0619450009204963 13.199743365367496
O 5.84269655365 1.3646505124 0.94488087035
O 10.94757921285 1.4521345896 0.7584077987500001
O 8.447728670824524 -0.0542038890795037 0.9855053446325044
O 6.085998952350001 -0.0912349752 13.07107149885
O 8.71963941635 1.4141264876 12.88766712965
O 3.61475675715 1.3266424104 13.07414020125
O 6.577524709324524 -0.0636302110795037 5.842593400532504
O 4.93126666085 -0.0434977372 3.38381700475
O 9.008577445324523 1.3259342161204963 5.673297059732504
O 3.900345664524524 1.4724036233204962 5.845917828132504
O 1.400495217475476 -0.0339348565204963 6.073015515867496
O 9.967351514024525 -0.0727877114795037 3.2551451382325043
O 12.600991978024526 1.4325737513204964 3.071740769032504
O 7.496109318824525 1.3450896741204963 3.258213840632504
O -0.4697087440245241 -0.0433611785204963 10.930103571767495
O 8.097147552524524 -0.0822140334795037 8.112233194132502
O 1.961343991975476 1.3462032486795037 10.760807230967496
O 7.066226651175476 1.4336873258795038 10.574334159367496
O 4.56637610915 -0.0726511528 10.80143170525
O 2.920118060675476 -0.0525186789204963 8.342655309467494
O 5.553758524675476 1.4528427838795035 8.159250940267496
O 10.661990305475475 1.3063733766795038 7.986630171867496
