60   
   
Ga -0.00046566025 0.0014732928 1.92749093775
Al 4.894211959750001 0.0157762678 1.92766117275
Ga -0.00207138525 0.0065536128 8.57401141275
Al 4.892606234750001 0.0208565878 8.57418164775
Ga -0.00274578975 0.0086873472 11.36555001225
Al 4.891931830250001 0.0229903222 11.36572024725
Ga -0.00114006475 0.0036070272 4.71902953725
Al 4.89353755525 0.0179100022 4.71919977225
Al 2.4416896142589497 1.42487987939199 6.35763925426392
Al 7.33636723425895 1.43918285439199 6.3578094892639205
Al 2.44008388925895 1.42996019939199 13.004159729263922
Al 7.33476150925895 1.44426317439199 13.00432996426392
Al 2.44262093475895 1.4219332937919895 2.50265737876392
Al 7.33729855475895 1.4362362687919898 2.50282761376392
Al 2.4410152097589495 1.4270136137919898 9.149177853763922
Al 7.33569282975895 1.44131658879199 9.14934808876392
Ga -0.0108254047589501 2.833987761208009 10.787630626236082
Al 4.88385221524105 2.8482907362080097 10.78780086123608
Ga -0.0092196797589501 2.8289074412080097 4.14111015123608
Al 4.885457940241049 2.8432104162080094 4.1412803862360805
Ga -0.0098940842589501 2.8310411756080094 6.93264875073608
Al 4.884783535741049 2.8453441506080095 6.93281898573608
Ga -0.0082883592589501 2.8259608556080096 0.28612827573608
Al 4.8863892607410495 2.8402638306080097 0.28629851073608
O 1.48228445636 0.006873961425 3.323311818705
O 6.376962076360001 0.021176936425 3.323482053705
O 1.69639700256 2.961835169255 3.321341434835
O 6.591074622560002 2.976138144255 3.321511669835
O 9.04327217358 1.3132777143199998 3.32271498396
O 4.148594553580001 1.29897473932 3.32254474896
O 0.73539852744 1.294085885745 9.968946570165
O 5.6300761474400005 1.3083888607449998 9.969116805165
O -1.71679902358 2.95694631568 9.96774325604
O 3.1778785964200003 2.97124929068 9.96791349104
O 3.40918171364 0.017589653575 9.969899366295
O 8.303859333640004 0.031892628575 9.970069601295
O 3.9244397308689503 1.43028054801699 7.75346013521892
O 8.819117350868952 1.44458352301699 7.753630370218918
O 1.70354529706895 0.13948134084699 7.754242696348919
O 6.598222917068951 0.15378431584699 7.75441293134892
O 1.69607220808895 2.70807835091199 7.75252283047392
O 6.59074982808895 2.72238132591199 7.752693065473919
O 3.1807652519489507 2.7073318323369895 1.1060539366789202
O 8.075442871948951 2.72163480733699 1.10622417167892
O 3.18823834092895 0.13873482227199 1.10777380255392
O 8.08291596092895 0.15303779727199 1.10794403755392
O 0.95987081814895 1.41653262516699 1.10683649780892
O 5.854548438148951 1.43083560016699 1.10700673280892
O 1.4719247118510497 2.8393884298330097 12.18345150719108
O 6.366602331851051 2.8536914048330098 12.18362174219108
O -0.7489697219489501 1.54858922266301 12.18423406832108
O 4.145707898051051 1.56289219766301 12.184404303321081
O -0.7564428109289499 4.1171862327280095 12.18251420244608
O 4.13823480907105 4.131489207728009 12.18268443744608
O 0.7282502329310498 4.116439714153009 5.53604530865108
O 5.62292785293105 4.13074268915301 5.53621554365108
O 0.73572332191105 1.5478427040880098 5.53776517452608
O 5.6304009419110495 1.56214567908801 5.53793540952608
O -1.49264420086895 2.8256405069830097 5.53682786978108
O 3.402033419131051 2.8399434819830094 5.53699810478108
