80   
   
In 1.74368591152 7.897100288729998 6.84408183349
In 7.17134362152 7.887602888729998 6.81532938849
Al 3.7469742043 1.37959439363 1.92053341735
In 9.1746319143 1.3700969936299998 1.8917809723500003
In 1.03636504548 3.25311657133 1.9274740016700005
In 6.46402275548 3.24361917133 1.89872155667
In 4.45429507034 6.02357811103 6.83714124917
In 9.88195278034 6.01408071103 6.80838880417
Ga 0.98203865131 6.0856907987 -0.029367726875
Al 6.409696361310001 6.0761933987 -0.058120171875
In 4.48787991369 3.1756501213 4.9023833718750005
In 9.91553762369 3.1661527213 4.873630926875
In 1.7711182661300002 1.4781497129 4.923532650935001
In 7.19877597613 1.4686523129 4.8947802059350005
Al 3.75144382887 7.822160147099998 9.826639354065
In 9.17910153887 7.812662747099998 9.797886909065
In 0.96491555445 0.31487502336 9.86134449018
Ga 6.39257326445 0.30537762336 9.83259204518
In 4.557541253490001 8.98535689876 4.8690732021
Al 9.98519896349 8.97585949876 4.840320757100001
In 1.83669919889 4.91950990476 4.8996458642
In 7.264356908890002 4.91001250476 4.870893419200001
Al 3.68575760905 4.380722017359999 9.83077182808
In 9.11341531905 4.371224617359999 9.80201938308
Al 3.76187842659 1.4766253912299998 7.747847446365002
Al 9.18953613659 1.4671279912299997 7.719095001365002
Al 1.73825752463 7.80708370033 2.794655949275
In 7.16591523463 7.797586300329998 2.765903504275
In 4.44912170889 6.08158318423 2.787126403515
In 9.87677941889 6.07208578423 2.758373958515
Ga 1.05101424233 3.20212590733 7.755376992125002
In 6.478671952330001 3.19262850733 7.726624547125
O 4.55720216509 6.21608164447 8.771838902365001
O 9.98485987509 6.20658424447 8.743086457365001
O 0.95409421449 3.07588886237 3.864621641595
O 6.3817519244900005 3.06639146237 3.835869196595001
O 3.66534093691 1.57242083867 3.856208653675
O 9.09299864691 1.56292343867 3.8274562086750006
O 1.84595544267 7.719549668169998 8.780251890285001
O 7.27361315267 7.710052268169998 8.751499445285
O 2.882776529930001 0.10278751291 6.197305026005001
O 8.31043423993 0.09329011291 6.168552581005001
O 2.60072406581 9.16860739361 1.224016959875
O 8.02838177581 9.159109993609999 1.195264514875
O 5.306870279430001 4.704706137909999 1.227383200755
O 10.73452798943 4.695208737909999 1.1986307557550002
O 0.17663031631 4.56668876861 6.193938785125001
O 5.60428802631 4.55719136861 6.165186340125
O 0.10096636021 7.655442414689999 1.164262688455
O 5.52862407021 7.64594501469 1.135510243455
O 5.38169193905 1.6153289887899995 6.0990247956650006
O 10.80934964905 1.6058315887899997 6.070272350665
O 2.67031770391 3.04478618169 6.1077322643050005
O 8.097975413910001 3.03528878169 6.078979819305
O 2.81234059535 6.22598522179 1.155555219815
O 8.239998305349998 6.21648782179 1.126802774815
O 5.32257900641 7.740511175669998 6.242941955990001
O 10.75023671641 7.731013775669998 6.214189510990001
O 0.16186917287 1.5315851717699998 1.3561688443700002
O 5.58952688287 1.52208777177 1.32741639937
O 2.8784076731700003 3.09956662627 1.3355349065700002
O 8.30606538317 3.09006922627 1.30678246157
O 2.60604050611 6.172529721169999 6.263575893790001
O 8.03369821611 6.163032321169999 6.23482344879
O 2.00768337559 1.60304869514 8.536980059815
O 7.435341085590002 1.5935512951400002 8.508227614815
O 3.5007702533700003 7.686817488939998 3.566114040705
O 8.928427963370002 7.677320088939998 3.537361595705
O 0.78439114397 6.211349572940001 3.586379877605
O 6.21204885397 6.201852172940001 3.5576274326050004
O 4.724062484990001 3.0785166111399995 8.516714222915
O 10.15172019499 3.06901921114 8.487961777915
O 4.58491696165 0.03638357345 8.865366869890002
O 10.01257467165 0.02688617345 8.836614424890001
O 0.92711642735 9.256132498549999 3.90937386311
O 6.35477413735 9.246635098549998 3.880621418110001
O 3.633007615530001 4.644209581249999 3.9133290654300006
O 9.06066532553 4.63471218125 3.8845766204300007
O 1.87902577347 4.64830649075 8.861411667570001
O 7.30668348347 4.63880909075 8.832659222570001
