80   
   
Al -0.0493116625 -0.0572338525 6.027235625
In -0.1479349875 -0.1717015575 18.081706875
In 4.6847132425 2.9271182125000004 6.091826965
In 4.5860899175 2.8126505075000003 18.146298215
In 3.1791768475 0.0684166125 6.054015015
Al 3.0805535225000003 -0.0460510925 18.108486265
In 1.4562247325 2.8014677475000003 6.065047575
Al 1.3576014075 2.6870000425 18.119518825
Al 0.0 0.0 0.0
In -0.098623325 -0.114467705 12.05447125
Al 4.734024905 2.9843520650000004 0.06459134
Al 4.63540158 2.8698843600000004 12.11906259
In 3.22848851 0.125650465 0.02677939
Al 3.129865185 0.01118276 12.08125064
In 1.505536395 2.8587016000000003 0.03781195
In 1.40691307 2.7442338950000003 12.0922832
Al -0.0971204907259999 1.8351142603255 3.029897687683
Al -0.1957438157259999 1.7206465553255 15.084368937683001
Al -1.820072605726 4.568165395325501 3.040930247683
Al -1.918695930726 4.453697690325501 15.095401497683001
Al 3.131368019274 1.9607647253255 3.056677077683
Al 3.032744694274 1.8462970203255 15.111148327683
Al 1.408415904274 4.6938158603255005 3.067709637683
Al 1.309792579274 4.5793481553255 15.122180887683001
In 1.5040335607260005 0.9091196346745 9.062385512317
Al 1.405410235726 0.7946519296744999 21.116856762317
Al -0.2189185542739999 3.6421707696745 9.073418072317
In -0.3175418792739998 3.5277030646745 21.127889322317
In 4.7325220707260005 1.0347700996745 9.089164902317
Al 4.633898745726 0.9203023946745 21.143636152316997
Al 3.009569955726 3.767821234674501 9.100197462317
Al 2.9109466307260004 3.6533535296745 21.154668712316997
O -0.1132848536934999 1.816353003476 5.005625525558
O -0.2119081786934999 1.701885298476 17.060096775558
O -1.8362369686935 4.549404138476 5.016658085558
O -1.9348602936935 4.434936433476 17.071129335558
O 3.1152036563065 1.942003468476 5.032404915558
O 3.0165803313065 1.827535763476 17.086876165558
O 1.3922515413065 4.675054603476 5.043437475558
O 1.2936282163064998 4.560586898476 17.097908725558
O 1.5201979236935002 0.927880891524 7.086657674442
O 1.4215745986935002 0.813413186524 19.141128924442
O -0.2027541913064999 3.660932026524 7.097690234442
O -0.3013775163064999 3.546464321524 19.152161484442
O 4.7486864336935 1.053531356524 7.113437064442
O 4.6500631086935 0.939063651524 19.167908314442
O 3.0257343186935 3.786582491524 7.124469624442
O 2.9271109936935003 3.672114786524 19.178940874442
O 1.4878691977585 0.8903583778249999 11.038113350192
O 1.3892458727585002 0.775890672825 23.092584600192
O -0.2350829172414999 3.623409512825 11.049145910192
O -0.3337062422414999 3.508941807825 23.103617160192
O 4.7163577077585 1.016008842825 11.064892740192
O 4.6177343827585 0.901541137825 23.119363990192
O 2.9934055927585 3.749059977825 11.075925300192
O 2.8947822677585 3.634592272825 23.130396550192
O -0.0809561277584999 1.853875517175 1.054169849808
O -0.1795794527584999 1.7394078121749998 13.108641099808002
O -1.8039082427585 4.586926652175 1.065202409808
O -1.9025315677585 4.472458947175 13.119673659808
O 3.1475323822415 1.979525982175 1.080949239808
O 3.0489090572415 1.865058277175 13.135420489808002
O 1.4245802672415 4.712577117175 1.091981799808
O 1.3259569422414998 4.598109412175 13.146453049808002
O -0.02465583125 -0.02861692625 3.0136178125
O -0.12327915625 -0.14308463125 15.0680890625
O 4.7093690737500005 2.9557351387500006 3.0782091525000004
O 4.61074574875 2.841267433750001 15.1326804025
O 3.20383267875 0.09703353875 3.0403972025000003
O 3.10520935375 -0.01743416625 15.0948684525
O 1.48088056375 2.8300846737500005 3.0514297625
O 1.38225723875 2.7156169687500005 15.1059010125
O -0.07396749375 -0.08585077875 9.040853437500001
O -0.17259081875 -0.20031848375 21.0953246875
O 4.66005741125 2.8985012862500006 9.1054447775
O 4.56143408625 2.784033581250001 21.1599160275
O 3.15452101625 0.03979968625 9.0676328275
O 3.05589769125 -0.07466801875 21.1221040775
O 1.43156890125 2.7728508212500005 9.0786653875
O 1.33294557625 2.6583831162500005 21.1331366375
