40   
   
Al -0.48864571 -0.0055515775 12.6938114625
In -0.06980653 -0.0007930825 1.8134016375
Ga 2.962443013010837 -0.0514553853267103 11.349606525471282
Al 6.692757946989162 -0.0941868646732897 2.7517953245287163
In 6.343725296989161 -0.0981522771732897 11.818803512028717
In 3.3114756630108366 -0.0474899728267103 2.2825983379712835
Al 5.1068266 -0.069648795 -0.202905625
Al 4.077092181989163 1.4233547878267103 4.610213127028716
Al 5.593216908010837 1.3980236371732897 9.378315427971282
In 10.700043508010836 1.3283748421732895 9.17540980297128
In 9.18391878198916 1.3537059928267103 4.407307502028716
Al 1.5161248169891623 -0.0253311521732897 4.768102587028716
Al 8.139076143010834 -0.1203110978267103 9.333299262971282
Al 3.102056067426315 -0.0498692203901569 7.722803395543415
Al 6.553144892573684 -0.0957730296098431 6.3785984544565855
Al -0.27922612 -0.00317233 7.25360655
O 10.59384742818916 1.3856541899267103 12.822781787128719
O 9.290719187010838 1.4151074720732897 0.7554205860712835
O 4.183288261810837 1.3660754400732895 0.9628411428712834
O 5.4864165029891625 1.3366221579267106 13.030202343928718
O -0.4160469188000001 -0.0047267717 10.8078737595
O -0.1424053212 -0.0016178883 3.6993393405
O 7.930441368589163 -0.1209791876732897 12.986986825528717
O 1.7247595914108376 -0.0246630623267103 1.1144150244712834
O 2.8898442162263147 -0.0522801911901569 13.235544373543414
O 6.765356743773684 -0.0933620588098431 0.8658574764565855
O 7.215537901373684 1.3154131357901568 10.499046171856584
O 2.454166863426316 1.387284462209843 3.4939973149434143
O 7.561597788626315 1.4363164942098432 3.286576758143414
O 12.322968826573684 1.3644451677901568 10.291625615056583
O 4.757009230973684 -0.0753253666098431 10.650620053456585
O 4.898191729026316 -0.0703168833901569 3.450781796543414
O 3.9708960112000007 1.4806341371 8.257584825099999
O 5.700017404 1.4594251149 5.7264287981
O 10.8062396788 1.2710954929 5.5280381049
O 9.077118286 1.2923045151 8.0591941319
O 3.174654864210837 -0.0490444145267103 5.836865547471284
O 6.480546095789162 -0.0965978354732897 8.264536302528716
O 1.3074899516 -0.0259992405 8.421789863499999
O 8.3477110084 -0.1196430095 5.6796119865
