40   
   
Al 0.89352043086 5.525389982499999 -0.00445595366
Al 4.03306730914 2.8613835025 4.50680624366
Al 1.5836781961000002 1.3236970965 4.51303465558
Al 3.3429095439000003 7.063076388499999 -0.01068436558
Al 3.368809920660001 1.3101688506399998 7.10187089809
Al 1.5693151734200002 7.078336662139999 2.58620570551
Al 4.00830707926 5.50738380064 2.58136835669
Al 0.92981801482 2.88112171214 7.10670824691
Al 1.56311563344 7.14683703584 6.290299072309999
Al 3.37139147504 1.2411253323399998 1.77159157929
Al 0.93284917816 2.9465058378399998 1.77636877403
Al 4.00165793032 5.44145653034 6.285521877569999
Al 0.84218028984 0.25230050103 9.02335893366
Al 4.10446717032 8.13748441903 4.49528902354
Al 1.64788431392 4.44895570903 4.50247990074
Al 3.29876314624 3.940829211029999 9.01616805646
O 4.08926295858 5.60980263846 8.05599425361
O 0.85312331854 2.77934257796 3.54736802679
O 3.2927896378200003 1.4100311824599998 3.54244044685
O 1.6495966393 6.979114033959999 8.06092183355
O 2.5793252952200003 0.06887046338 5.67676915693
O 2.35244822414 8.318681528880001 1.15644766427
O 4.78312236422 4.26081725338 1.15272316593
O 0.14865115514 4.126734738879999 5.68049365527
O 4.787848694399999 7.00136578111 5.75002324399
O 0.14428662352 1.38624052561 1.24581217241
O 2.59328232872 2.80630274311 1.23963639531
O 2.3388529892 5.58130356361 5.75619902109
O 0.09899781174 6.948347018119999 1.08988302119
O 4.8324541089 1.4391566946199998 5.59878393761
O 2.39256298514 2.74125426812 5.60374159459
O 2.5388889355000006 5.64624944462 1.08492536421
O 1.78690946234 1.4249637035199998 7.819124711219998
O 3.1543914191 6.96401856952 3.29638178358
O 0.7056767195 5.62797362952 3.30251996438
O 4.23562416194 2.76100864352 7.81298653042
O 4.10485154448 -0.00264561725 8.121668738289998
O 0.83781613152 8.391833078249999 3.60817467171
O 3.2680406626400003 4.19954115875 3.60451032745
O 1.67462701336 4.189646302249999 8.12533308255
