80   
   
Ga -0.056792685 -0.025667585 5.94207807
Ga -0.170378055 -0.077002755 17.82623421
Ga 4.581696455 2.74999179 5.997530625
Ga 4.468111085 2.69865662 17.881686765
Ga 3.06373847 0.02308163 5.972164585
Ga 2.9501531 -0.02825354 17.856320725
Ga 1.4611653 2.701242575 5.96744411
Ga 1.34757993 2.649907405 17.85160025
Ga 0.0 0.0 0.0
Ga -0.11358537 -0.05133517 11.88415614
Al 4.63848914 2.775659375 0.055452555
Ga 4.52490377 2.724324205 11.939608695
Ga 3.120531155 0.048749215 0.030086515
Ga 3.006945785 -0.002585955 11.914242655
Ga 1.517957985 2.72691016 0.02536604
Ga 1.404372615 2.67557499 11.90952218
Al -0.0565985836604999 1.7886764067965002 2.9779202018145
Al -0.1701839536604998 1.7373412367965002 14.862076341814499
Al -1.6591717536605004 4.466837351796499 2.9731997268145
Ga -1.7727571236605004 4.4155021817965 14.8573558668145
Al 3.0639325713395005 1.8374256217965 3.0080067168145
Al 2.9503472013395005 1.7860904517965002 14.8921628568145
Al 1.4613594013394997 4.515586566796499 3.0032862418145
Al 1.3477740313394997 4.4642513967965 14.8874423818145
Al 1.4609711986604998 0.8868985832034999 8.9316019781855
Al 1.3473858286604998 0.8355634132034999 20.8157581181855
Al -0.1416019713395003 3.5650595282035 8.9268815031855
Al -0.2551873413395003 3.5137243582035 20.8110376431855
Ga 4.5815023536605 0.9356477982035 8.9616884931855
Al 4.4679169836605 0.8843126282034999 20.8458446331855
Ga 2.9789291836605005 3.6138087432035 8.9569680181855
Al 2.8653438136605005 3.5624735732035 20.8411241581855
O -0.0752152258034998 1.7802625724335002 4.9257333931605
O -0.1888005958034999 1.7289274024335002 16.8098895331605
O -1.6777883958035005 4.458423517433499 4.9210129181605
O -1.7913737658035005 4.4070883474335 16.805169058160498
O 3.0453159291965 1.8290117874335 4.9558199081605
O 2.9317305591965 1.7776766174335 16.839976048160494
O 1.4427427591964994 4.507172732433499 4.9510994331605
O 1.3291573891964994 4.4558375624335 16.8352555731605
O 1.4795878408035 0.8953124175664999 6.9837887868395
O 1.3660024708035 0.8439772475664999 18.867944926839495
O -0.1229853291965002 3.5734733625665003 6.9790683118395
O -0.2365706991965003 3.5221381925665 18.863224451839493
O 4.6001189958035 0.9440616325665 7.0138753018395
O 4.4865336258035 0.8927264625664999 18.898031441839496
O 2.9975458258035004 3.6222225775665 7.0091548268395
O 2.8839604558035004 3.5708874075665 18.8933109668395
O 1.4423545565174998 0.8784847488405 10.879415169531502
O 1.3287691865174998 0.8271495788405 22.763571309531493
O -0.1602186134825002 3.5566456938405 10.8746946945315
O -0.2738039834825002 3.5053105238405 22.7588508345315
O 4.5628857115175006 0.9272339638405 10.9095016845315
O 4.4493003415175005 0.8758987938405 22.7936578245315
O 2.9603125415175 3.6053949088405 10.904781209531501
O 2.8467271715175 3.5540597388405 22.788937349531494
O -0.0379819415174999 1.7970902411595002 1.0301070104685
O -0.1515673115174999 1.7457550711595002 12.9142631504685
O -1.6405551115175003 4.4752511861595 1.0253865354685
O -1.7541404815175003 4.4239160161595 12.909542675468499
O 3.0825492134825003 1.8458394561595 1.0601935254685
O 2.9689638434825003 1.7945042861595002 12.944349665468499
O 1.4799760434824996 4.524000401159499 1.0554730504685
O 1.3663906734824995 4.4726652311595 12.9396291904685
O -0.0283963425 -0.0128337925 2.971039035
O -0.1419817125 -0.0641689625 14.855195175
O 4.6100927975 2.7628255825 3.02649159
O 4.4965074275 2.7114904125 14.91064773
O 3.0921348125000003 0.0359154225 3.00112555
O 2.9785494425000003 -0.0154197475 14.88528169
O 1.4895616425 2.7140763675 2.996405075
O 1.3759762725 2.6627411975 14.880561215
O -0.0851890275 -0.0385013775 8.913117104999998
O -0.1987743975 -0.0898365475 20.797273245
O 4.5533001125 2.7371579975 8.96856966
O 4.4397147425 2.6858228275 20.8527258
O 3.0353421275000003 0.0102478375 8.94320362
O 2.9217567575000003 -0.0410873325 20.82735976
O 1.4327689575 2.6884087825000003 8.938483144999998
O 1.3191835875 2.6370736125 20.822639285
