40   
   
Al -0.0567805397875942 3.439716865075515 14.052771955623749
Al 1.5002231097647862 2.594326306550544 2.4562401188504728
Al 2.995941799764786 -0.0151943484494558 2.4575652038504727
Al -1.5074793702352136 2.603714531550544 2.4411986388504734
In 2.9866626800228078 1.7140990083739405 5.514850185525777
In -0.0205811902352136 -0.0101607159494558 4.274416480100474
In -1.525578999977192 4.3286532958739405 7.330376376775778
Al -0.0298603099771923 1.719132640873941 7.331701461775777
Ga 1.482123480022808 4.319265070873941 7.345417856775778
Ga -0.0126779897875942 3.4614898275755146 4.8933081743737485
Al -0.0391395197875942 3.448426050075515 10.38898644312375
Ga 2.969021660022808 1.7053898233739404 9.178635698025776
Al 4.455461140212405 0.8251625775755149 12.237245764373748
In 2.9597424502124055 3.434683232575515 12.235920679373747
Al 1.4477586602124055 0.834550802575515 12.222204284373747
In -0.0470427202352136 -0.0232244934494558 9.770094748850472
O 4.448221037622808 0.8861508213739409 1.2700962918257772
O 3.012331095222808 3.3912906501739406 1.2688242102257772
O 1.5608266568228075 0.8951635173739408 1.2556564710257772
O -0.0643309198352136 -0.0317594947494558 13.360604551100474
O 0.0046102098124058 3.470024828875515 1.3027983721237495
O 1.5074633024228077 2.533338010373941 13.423389591725778
O 2.9433532448228075 0.0281981815739408 13.424661673325776
O 4.394857683222807 2.524325314373941 13.437829412525776
O 1.422418837812406 2.620477863075515 6.14423254942375
O -0.013471104587594 5.125617691875513 6.14296046782375
O -1.464975542987594 2.6294905590755144 6.12979272862375
O 2.995836010422808 1.7186277845739404 3.609681719025777
O -0.0297545206352136 -0.0146894921494558 6.179584946600474
O -1.4477748173875944 4.302501792075514 3.6423837993237487
O -0.0118848749875942 1.797361963275515 3.643655880923749
O 1.4396195634124058 4.293489096075515 3.656823620123749
O -1.6033832726352135 4.354804852050544 11.018368953900474
O -0.0478358350352136 1.640903370850544 11.019747042300471
O 1.5246273065647868 4.345041098050544 11.034012093100472
O -0.0299661893875942 3.4529548262755148 8.48381797662375
O 2.9598483296228077 1.7008610471739405 11.083804164525777
O 4.533265412164786 0.7990110210505442 8.549253333800474
O 2.9777179745647864 3.5129125022505443 8.547875245400473
O 1.4052548329647865 0.8087747750505442 8.533610194600476
