40   
   
Ga 0.0318316425 -0.00789326125 12.64783643375
In 0.0045473775 -0.00112760875 1.80683377625
Ga 0.0359283798976978 3.5403358291078635 11.443979039969184
Ga 3.0840182101023026 1.7658254908921358 3.003722930030815
In 3.07287504 -0.00603381 -0.00801607
Ga -1.531091255 2.663624905 0.00453195
Ga 1.541783785 2.657591095 -0.00348412
In -1.5154007073976978 4.434356597142136 4.823104726280814
In 0.0156905476023023 1.7707316921421357 4.818572776280814
Al 1.5574743326023026 4.428322787142136 4.815088656280815
Ga 1.562472257397698 0.8778385328578637 9.632613313719185
Ga 4.635347297397698 0.8718047228578638 9.624597243719185
In 3.1042560423976977 3.535429627857864 9.629129193719184
Ga 0.026833625261488 3.542591046517655 7.830311632015887
Ga 3.0931129647385127 1.7635702734823444 6.617390337984112
Ga 0.01818951 -0.004510435 7.227335105
O 4.583116528702303 0.9051298843921362 13.262523412730815
O 3.1132689239023024 3.462209793192136 13.266874084730814
O 1.6331564903023024 0.910922341992136 13.270218839930815
O 1.4867900996976986 4.395238978007864 1.1774831300691857
O -1.463169938702302 4.401031435607864 1.1851785572691853
O 0.0066776660976978 1.843951526807864 1.1808278852691854
O 0.0271023699 -0.00672054815 10.76872930645
O 0.0092766501 -0.00230032185 3.68594090355
O 0.040657652861488 3.539163115917655 13.323086311815889
O 3.0792889371385126 1.7669982040823444 1.1246156581841125
O 1.6303936661385117 2.6152450099823445 10.813260065284112
O 3.100241270938512 0.0581651011823448 10.808909393284113
O 4.580353704538512 2.609452552382345 10.805564638084112
O -1.4604071145385118 2.696708767617655 3.642137331915887
O 1.4895529238614884 2.6909163100176547 3.634441904715888
O 0.0197053190614886 5.247996218817654 3.638792576715887
O -1.5676315688999998 4.46768181225 8.461030606449999
O 0.0247033363 1.69751191105 8.45631737845
O 1.6281584727000007 4.46140664985 8.452693893649998
O 1.4917881173 0.8447546701499999 5.99500807635
O 4.6875781589 0.8384795077499999 5.986671363549999
O 3.0952432537 3.60864940895 5.991384591549999
O 0.0221043522976978 3.5437637597078635 5.951204360169186
O 3.0978422377023027 1.7623975602921358 8.496497609830817
