80   
   
Al 7.013355777499999 2.3365223200000003 6.9837992775
Al 2.3360912475 6.99143913 7.0056478125
Al 6.989515527499999 7.011573825 2.3263355575
Al 7.002412522499999 7.002657975 6.9924782775
Ga 2.3231942525 7.00035498 2.3395050925
Al 7.000458782499999 2.34543817 2.3176565575
Ga 2.3470345025 2.325303475 6.9969688125
Al 2.3341375075 2.334219325 2.3308260925
Al 7.00217979384 4.35675084796 4.6544772455
Ga 2.31201826884 9.020583507959998 0.0101830605
In 6.987794516159999 5.00026114704 -0.0104851305
Al 4.661926391839999 7.0021127553 4.34869398004
Ga 0.01944536684 2.3158424053 9.019327235039999
Al -0.00264089184 6.989681354699999 4.99645892496
In 4.3574136658 4.66321784354 6.99561907338
Ga 9.021781200799996 0.01721688354 2.30762781838
Al 5.0029766142000005 -0.00139204854 6.98514901662
Ga 2.33437023616 4.98012645204 4.6688271245
Ga 6.998737771159999 0.33412549204 -0.0191641305
Al 2.32296152384 4.35444785296 0.0015040605
Al 4.674623638159999 2.3347645447 4.9746103899600005
Al -0.01553788684 6.9985972047 0.33031620496
Ga 0.00654837184 2.3247582553 4.35318451504
In 4.9791363642 4.67365945646 2.32768529662
Al 0.3366553392 -0.01261089354 6.99831855162
In 4.3554599258 0.00599803854 2.32079735338
Ga 2.34531349116 0.31399079704 4.6601481245
Ga 4.661726643159999 2.3436803947 0.30846766996
Al 0.3128150892 4.66244061146 2.34085483162
In 6.99123653884 9.022886502959999 4.6631562455
Ga 4.674823386839999 6.9931969053 9.01483670004
Al 9.023734940799997 4.67443668854 6.98244953838
O 5.794601613029999 3.65113185481 6.11243600324
O 3.54867341615 8.30853010461 7.88190604276
O 8.20342042185 5.70031664979 1.44322916904
O 5.79467962397 5.682214640789999 7.870689709959999
O 6.1187293266900005 5.793755142139999 3.64240713712
O 7.89141588349 3.54931246346 8.299432191959998
O 1.45234064891 8.205039527140002 5.69452797804
O 7.878889215909998 5.79408611726 5.67189361788
O 3.65069796029 6.119687462150001 5.78710524443
O 8.306714013809998 7.88965292143 3.53745050783
O 5.70286372859 1.4538069815699997 8.199078541569998
O 5.68109937231 7.879045884849998 5.78462663117
O 3.54194841697 5.68574544519 3.21086836676
O 5.78787661385 1.02834719539 1.44139832724
O 1.13312960815 3.63656065021 7.880075200959999
O 3.54187040603 3.65466265921 1.45261466004
O 3.2178207033099997 3.54312215786 5.68089723288
O 1.4451341465099998 5.78756483654 1.02387217804
O 7.88420938109 1.1318377728599998 3.62877639196
O 1.45766081409 3.54279118274 3.65141075212
O 5.685852069709999 3.2171898378499995 3.53619912557
O 1.0298360161899998 1.44722437857 5.78585386217
O 3.63368630141 7.883070318429999 1.12422582843
O 3.65545065769 1.4578314151499998 3.53867773883
O 1.1044400880299998 8.31496451481 1.46814181824
O 8.213040951149999 3.66252914461 3.19391478776
O 3.56093939685 1.01404629979 6.11386242404
O 1.12640460897 1.01377599079 3.20903752496
O 1.47624830169 1.10748479214 8.313040392119998
O 3.2012543584899995 8.21314512346 3.65513800696
O 6.11670818391 3.55903856714 1.00653672304
O 3.21061420091 1.12564746726 1.01024143288
O 8.315065495289998 1.47368650215 1.09911398943
O 3.66423298881 3.20338257143 8.20808376283
O 1.0127022035899995 6.11763964157 3.55478435657
O 1.0128243573099998 3.2106072348499994 1.12297444617
O 8.23210994197 1.0219127851899998 7.855162551759999
O 1.12350907885 5.67434815539 6.12938958224
O 5.77561063315 8.322831000210002 3.20944194596
O 8.210145421030001 8.323101309210001 6.11426684504
O 7.860301728309999 8.22939250786 1.01026397788
O 6.135295671510001 1.12373217654 5.66816636304
O 3.219841846089999 5.77783873286 8.31676764696
O 6.12593582909 8.211229832739999 8.31306293712
O 1.02148453471 7.86319079785 8.22419038057
O 5.67231704119 6.1334947285700006 1.11522060717
O 8.32384782641 3.2192376584299995 5.76852001343
O 8.323725672689998 6.12627006515 8.20032992383
