60   
   
In -0.00577847479 0.00734898098 2.18334399609
In 5.528742510210001 0.08250494098 2.19781038609
In -0.02516932979 0.03200999098 9.51000170109
In 5.509351655210001 0.10716595098 9.52446809109
In -0.03300323521 0.04197303902 12.46997141391
In 5.5015177497900005 0.11712899902 12.48443780391
In -0.01361238021 0.01731202902 5.143313708909999
In 5.520908604790001 0.09246798902 5.157780098909999
In 2.7269285091669504 1.65887204278862 7.069654926440849
In 8.26144949416695 1.73402800278862 7.084121316440849
In 2.7075376541669502 1.68353305278862 14.396312631440848
In 8.24205863916695 1.75868901278862 14.410779021440849
In 2.7384854587469505 1.64417408082862 2.70296693426085
In 8.27300644374695 1.71933004082862 2.7174333242608495
In 2.7190946037469503 1.66883509082862 10.029624639260849
In 8.25361558874695 1.74399105082862 10.044091029260848
Ga -0.0748772937469498 3.23524409917138 11.94151412573915
In 5.459643691253051 3.31040005917138 11.95598051573915
In -0.0554864387469498 3.21058308917138 4.61485642073915
In 5.479034546253051 3.2857390491713803 4.62932281073915
In -0.0633203441669498 3.22054613721138 7.5748261335591485
In 5.471200640833051 3.29570209721138 7.589292523559148
Ga -0.0439294891669498 3.19588512721138 0.24816842855915
In 5.490591495833051 3.27104108721138 0.26263481855915
O 1.69493703588 0.03547854068 3.66778450062
O 7.229458020880002 0.11063450068 3.68225089062
O 1.860358366 3.35475704772 3.6572154823
O 7.394879351 3.42991300772 3.6716818723
O -0.88199180938 1.4768520866 3.65615222458
O 4.652529175620001 1.5520080466 3.67061861458
O 0.803249799 1.52466113228 10.9872655777
O 6.337770784000001 1.59981709228 11.0017319677
O -1.98892101062 3.3274101334 10.97386244542
O 3.545599974380001 3.4025660934 10.98832883542
O 3.80080223912 0.08899943932 10.99999729938
O 9.33532322412 0.16415539932 11.01446368938
O 4.4276440198369515 1.68700160248862 8.55409543097085
O 9.962165004836953 1.76215756248862 8.56856182097085
O 1.8906754749569497 0.17618394952862 8.55236076265085
O 7.42519645995695 0.25133990952862 8.56682715265085
O 1.85071517457695 3.12837514840862 8.54246315493085
O 7.385236159576951 3.20353110840862 8.55692954493085
O 3.5747384929569503 3.12686217408862 1.22026109805085
O 9.109259477956952 3.20201813408862 1.23472748805085
O 3.614698793336951 0.17467097520862 1.23015870577085
O 9.149219778336953 0.24982693520862 1.24462509577085
O 1.0377699480769502 1.61604452112862 1.21852642973085
O 6.57229093307695 1.69120048112862 1.23299281973085
O 1.62583821692305 3.26337365887138 13.425954630269148
O 7.1603592019230495 3.33852961887138 13.440421020269149
O -0.91113032795695 1.7525560059113798 13.424219961949149
O 4.623390657043051 1.82771196591138 13.43868635194915
O -0.9510906283369496 4.7047472047913805 13.41432235422915
O 4.583430356663051 4.7799031647913806 13.42878874422915
O 0.77293269004305 4.70323423047138 6.09212029734915
O 6.3074536750430505 4.77839019047138 6.10658668734915
O 0.8128929904230502 1.75104303159138 6.10201790506915
O 6.347413975423051 1.82619899159138 6.11648429506915
O -1.76403585483695 3.19241657751138 6.09038562902915
O 3.7704851301630504 3.26757253751138 6.10485201902915
