80   
   
In 7.3919195425 2.4600542225 7.386089215
In 2.4629486575 7.3823637325 7.39459356
Al 7.3854777024999985 7.391008937499999 2.4654375500000003
In 7.388719672499999 7.3857543825 7.391194425
Al 2.4597066875 7.387618287499999 2.4688366850000003
Ga 7.3886775725 2.4653087775 2.4603323400000003
In 2.4661485275 2.4566635725 7.38948835
In 2.4629065575 2.4619181275 2.4637314750000003
In 7.38891621366 4.590583969120001 4.9254162282200005
In 2.45670335866 9.51814803412 0.00816369822
Ga 7.38523906134 5.26573374588 0.00035366178
In 4.923992726039999 7.38704364474 4.595064087500001
In 0.00466355104 2.45269827974 9.5191148875
In -0.00133738104 7.38293837526 5.268366157500001
In 4.59248167098 4.9209784133 7.39057252868
Ga 9.51821058598 0.0039234583 2.45631130868
Ga 5.26558639902 -0.0042606183 7.38500503632
In 2.4627100163399995 5.257088540880001 4.92950967178
In 7.388438931339999 0.34003358588 -0.00475154822
Ga 2.45990322866 4.59244787412 0.00305848822
In 4.92763350396 2.46062886526 5.2598618125000005
Al -0.00457935104 7.38819293026 0.3426092825000001
Al 0.00142158104 2.45795283474 4.5933580125
In 5.259144559019999 4.9266940967 2.46435337132
In 0.33981538402 -0.0076512683 7.38840417132
Al 4.59243957098 0.0005328083 2.45971044368
Ga 2.4659098863399995 0.3313883808800001 4.92440446178
In 4.92439153396 2.46588342026 0.3341049375
Al 0.33337354402 4.9233034467 2.46775250632
Ga 7.38571634366 9.51628412912 4.93052143822
In 4.927234696039999 7.38178908974 9.5208209625
In 9.51825268598 4.9243690633 7.38717339368
O 6.109707224899999 3.84920795496 6.462370366820001
O 3.74335624842 8.771304890279998 8.32119174662
O 8.666471039379998 6.003830917719999 1.53707181318
O 6.109531062299999 5.99483751204 8.31668082338
O 6.46117895342 6.10820766919 3.853812671530001
O 8.31804676266 3.73989192179 8.77584097097
O 1.53515750494 8.663890116409998 6.00749651323
O 8.31468235398 6.107191567609999 6.00016459427
O 3.85177474709 6.45865445002 6.11197843695
O 8.77478646537 8.316630546579999 3.74613556091
O 6.00429660403 1.53170024482 8.666784779090001
O 5.9982077585099995 8.312196033579998 6.11241597305
O 3.7419190051 5.998464555039999 3.39255553318
O 6.10826998158 1.07636761972 1.5337341533800002
O 1.1851551906199995 3.84384159228 8.31785408682
O 3.7420951677 3.85283499796 1.53824507662
O 3.39044727658 3.73946484081 6.00111322847
O 1.5335794673399998 6.107780588209999 1.07908492903
O 8.31646872506 1.18378239359 3.847429386770001
O 1.5369438760199998 3.74048094239 3.85476130573
O 5.99985148291 3.38901805998 3.74294746305
O 1.07683976463 1.53104196342 6.1087903390900005
O 3.84732962597 8.31597226518 1.18814112091
O 3.85341847149 1.53547647642 3.74250992695
O 1.1774943698999998 8.77677201996 1.54511783682
O 8.669085163419998 3.85424993528 3.38693052662
O 3.74714186438 1.06948555272 6.461122613180001
O 1.1837179473 1.0710012570400005 3.38921787338
O 1.5418497784199998 1.17386230419 8.77786347153
O 3.3858339076599995 8.667455986789998 3.85858844097
O 6.4608864199400005 3.74683516141 1.07323529323
O 3.3888692389799995 1.1833553126099998 1.07270164427
O 8.777503662089998 1.54159949502 1.17771721695
O 3.85545729037 3.38228518158 8.67018636091
O 1.07208374903 6.45926430982 3.74953224909
O 1.07239464351 3.3883597785799995 1.18495302305
O 8.6741318601 1.07090049004 8.30980806318
O 1.18254106658 5.99342257472 6.467995373380001
O 6.10448436562 8.778186957279999 3.39380328682
O 8.6679082827 8.77667125296 6.465708026620001
O 8.309776451580001 8.673810205809998 1.07706242847
O 6.4657923223400005 1.18021652321 5.99633745903
O 3.3907398100599995 6.10083734859 8.78169060677
O 6.46275699102 8.664317197389998 8.78222425573
O 1.0741225679100002 8.306073014979999 8.67720868305
O 5.99616893963 6.46538732842 1.18473953909
O 8.77954248097 3.3884082001799998 6.10539365091
O 8.779231586489999 6.45931273142 8.66997287695
