80   
   
In 1.66357411094 7.567845852629999 6.60121921426
Al 6.85492264594 7.55578945263 6.580415919259999
Al 3.58217881402 1.3191403617899995 1.85533090116
In 8.77352734902 1.30708396179 1.83452760616
In 0.9906302026 3.11859177123 1.86122756284
In 6.1819787376 3.10653537123 1.84042426784
Al 4.25512272236 5.76839444319 6.595322552579999
In 9.44647125736 5.75633804319 6.57451925758
Al 0.942690406085 5.8397848341600005 -0.018398446585
Ga 6.1340389410850005 5.82772843416 -0.039201741585
Al 4.288086838915 3.03807420084 4.729015456585
Al 9.479435373915 3.02601780084 4.708212161585
Al 1.688654548055 1.41048918036 4.743520655525
Al 6.8800030830550005 1.3984327803599998 4.722717360525
In 3.5801320369450003 7.490535284639998 9.474540784475002
Al 8.771480571945 7.4784788846399985 9.453737489475
Al 0.91073060574 0.28746677097 9.49377297471
Al 6.10207914074 0.27541037097 9.47296967971
Al 4.357979960580001 8.61351136317 4.70527357643
Al 9.54932849558 8.601454963170001 4.68447028143
In 1.7533191154800003 4.71307316637 4.72548806433
In 6.9446676504800005 4.70101676637 4.70468476933
In 3.5153914508400006 4.187904967769999 9.47355848681
In 8.70673998584 4.175848567769999 9.45275519181
Al 3.589193671335001 1.40387079645 7.464607109464999
In 8.780542206335001 1.3918143964499998 7.443803814465
In 1.663400934825 7.487285195369998 2.703283003355
Al 6.854749469825 7.475228795369999 2.682479708355
Al 4.255276330885 5.82988710945 2.697029511115
Al 9.446624865885 5.81783070945 2.676226216115
Al 0.997318275275 3.0612688823700003 7.470860601704999
Al 6.188666810275 3.04921248237 7.450057306705
O 4.351233958895 5.95029656307 8.457981966645
O 9.542582493895 5.938240163070001 8.437178671645
O 0.909418627345 2.94577049991 3.725486365335
O 6.100767162345001 2.93371409991 3.704683070335
O 3.5017842003650004 1.5014523992700002 3.718697627255
O 8.693132735365001 1.48939599927 3.697894332255
O 1.758868385875 7.394614663709999 8.464770704724998
O 6.950216920875 7.382558263709998 8.443967409724998
O 2.749549672095 0.08814643995 5.969060099405
O 7.940898207094999 0.07609003995 5.948256804405
O 2.4910339826250003 8.79568927599 1.194477573535
O 7.682382517625002 8.783632875990001 1.173674278535
O 5.076863862845 4.51030470495 1.194825446655
O 10.268212397845 4.49824830495 1.174022151655
O 0.163719791875 4.373531010990001 5.968712226285
O 5.355068326875 4.36147461099 5.947908931285
O 0.099360039245 7.345003330469998 1.131645047035
O 5.290708574245 7.332946930469999 1.110841752035
O 5.140615466035001 1.53846173859 5.879773515025
O 10.331964001035002 1.5264053385899998 5.858970220024999
O 2.548086500695 2.91175317747 5.886740668385
O 7.739435035695002 2.89969677747 5.865937373385
O 2.691889004585 5.971711891589999 1.124677893675
O 7.883237539585 5.95965549159 1.1038745986749998
O 5.08729480834 7.41646854474 6.02690664875
O 10.278643343340002 7.404412144739998 6.00610335375
O 0.1539730145 1.46778414894 1.30776502393
O 5.3453215495 1.45572774894 1.2869617289300002
O 2.7531193688 2.9710725113400005 1.29357205173
O 7.9444679038 2.9590161113400004 1.27276875673
O 2.4881484540400005 5.91318018234 6.04109962095
O 7.67949698904 5.90112378234 6.02029632595
O 1.910464996375 1.52502546438 8.222145562185
O 7.101813531375002 1.51296906438 8.201342267184998
O 3.3481350855050005 7.369790665379998 3.447920770575
O 8.539483620504999 7.357734265379999 3.427117475575
O 0.7491929716050001 5.955285630180001 3.461890723675
O 5.940541506605001 5.94322923018 3.441087428675
O 4.509407110275001 2.9395304995800005 8.208175609085
O 9.700755645275002 2.9274740995800004 8.187372314084998
O 4.3741962053000005 0.01964806932 8.53928613047
O 9.5655447403 0.00759166932 8.518482835469998
O 0.8869885117 8.87674330968 3.77728642353
O 6.078337046700001 8.864686909679998 3.75648312853
O 3.4724916072800007 4.44930541512 3.77799112721
O 8.66384014228 4.43724901512 3.75718783221
O 1.7886931097200005 4.447085963879999 8.538581426789998
O 6.980041644720002 4.435029563879999 8.51777813179
