40   
   
Al -0.0076687903646747 0.0015105308431481 1.9085279165199491
Ga -0.0522981996353253 0.0103012391568519 13.015426063480051
In -1.4606652765803805 4.384475994798802 4.8910559647294924
In -0.0042844003617056 1.8109721413758144 4.90111355000352
Al 1.4954028919007607 4.3572656172775295 4.998150240658887
Ga 1.5323359380992398 0.8971092027224709 10.125592559341115
In 4.48840410658038 0.8698988252011988 10.232686835270508
In 3.0320232303617054 3.443402678624186 10.222629249996482
Ga 0.0194225925646481 3.515745052315701 2.622692866660155
Ga 3.008316237435352 1.738629767684299 12.501049933339843
Al -0.0034089885459337 3.5202422162523024 8.304776722877719
Ga 3.031147818545933 1.7341326037476976 6.8189660771222815
Ga -0.029983495 0.005905885 7.46197699
In 3.043124035 -0.02801172 0.11024819
Al -1.499271125 2.649293245 -0.01035378
Ga 1.54385291 2.621281525 0.09989441
O 1.527116097690978 2.625214898341047 3.861354240133102
O 0.0294514417014156 5.271669425629029 3.851011554208372
O -1.5127472299055196 2.653196603783067 3.7512241810686873
O 4.54048605990552 2.601178216216933 11.372518618931313
O 1.500622732309022 2.6291599216589527 11.262388559866896
O 2.9982873882985843 -0.0172946056290294 11.272731245791629
O -0.025785914930083 3.5246498263017063 13.873710891007418
O 3.053524744930083 1.7297249936982937 1.2500319089925829
O -0.0155344199753448 0.0030598333488504 3.8660431150210894
O -0.0444325700246552 0.0087519366511496 11.05791086497891
O -1.4106821162763348 4.360739431605795 1.262188719954912
O 0.0106481399027954 1.849171921353446 1.2720042500044368
O 1.4742425595400006 4.33418392439984 1.3667055651892823
O 1.5534962704599993 0.92019089560016 13.757037234810717
O 4.438420946276334 0.8936353883942049 13.861554080045089
O 3.0170906900972043 3.4052028986465537 13.851738549995565
O -1.640191570686245 4.484160869335452 8.773289612195283
O -0.0215100973729452 1.6238630742614797 8.78446802521565
O 1.6453039039557509 4.45391813908902 8.892318585436746
O 1.3824349260442492 0.8004566809109805 6.231424214563254
O 4.667930400686244 0.7702139506645485 6.3504531878047175
O 3.0492489273729446 3.630511745738521 6.33927477478435
O 0.0046616736005755 3.518652528241911 6.2962351825631
O 3.0230771563994243 1.7357222917580892 8.827507617436899
