80   
   
Al -0.0310015425 -0.0349297325 6.0678943925
Al -0.0930046275 -0.1047891975 18.2036831775
Ga 4.8432793125 2.7984781125 6.1081797675
In 4.7812762275 2.7286186475 18.2439685525
In 3.2238955225000003 -0.0252653625 6.084367327500001
Al 3.1618924375 -0.0951248275 18.2201561125
Ga 1.5883822475 2.7888137424999995 6.091706832500001
In 1.5263791625 2.7189542774999995 18.2274956175
In 0.0 0.0 0.0
Ga -0.062003085 -0.069859465 12.135788785
Ga 4.874280855 2.833407845 0.040285375
Al 4.812277770000001 2.76354838 12.17607416
Ga 3.254897065 0.00966437 0.016472935
Ga 3.19289398 -0.060195095 12.15226172
Ga 1.61938379 2.823743475 0.02381244
Ga 1.557380705 2.75388401 12.159601225
Ga -0.0208767286004999 1.861621399664 3.0443301395185003
Al -0.0828798136004999 1.7917619346639997 15.1801189245185
In -1.6563900036005004 4.675700504664 3.0516696445185003
Ga -1.7183930886005003 4.605841039664 15.187458429518498
In 3.2340203363995004 1.8712857696639995 3.0608030745185
Al 3.1720172513995006 1.8014263046639996 15.196591859518499
Ga 1.5985070613995 4.685364874664 3.0681425795185
Ga 1.5365039763995 4.615505409664 15.2039313645185
In 1.5782574336005 0.892262610336 9.115271085481503
Ga 1.5162543486005 0.8224031453359999 21.2510598704815
Ga -0.0572558413994999 3.706341715336 9.1226105904815
In -0.1192589263994999 3.636482250336 21.258399375481503
In 4.833154498600501 0.901926980336 9.1317440204815
Al 4.7711514136005 0.8320675153359999 21.2675328054815
Al 3.1976412236005007 3.716006085336 9.139083525481501
Ga 3.135638138600501 3.646146620336 21.274872310481506
O -0.0310390342319999 1.8501714333505 5.03338592138
O -0.0930421192319999 1.7803119683504998 17.16917470638
O -1.6665523092320005 4.664250538350499 5.04072542638
O -1.7285553942320004 4.5943910733505 17.176514211379995
O 3.2238580307680005 1.8598358033505 5.04985885638
O 3.1618549457680007 1.7899763383504996 17.18564764138
O 1.588344755768 4.6739149083505 5.05719836138
O 1.526341670768 4.6040554433505 17.19298714638
O 1.588419739232 0.9037125766495 7.12621530362
O 1.526416654232 0.8338531116494999 19.262004088620003
O -0.0470935357679999 3.717791681649499 7.13355480862
O -0.1090966207679999 3.647932216649499 19.26934359362
O 4.843316804232001 0.9133769466495 7.14268823862
O 4.781313719232 0.8435174816494999 19.27847702362
O 3.2078035292320006 3.727456051649499 7.15002774362
O 3.145800444232001 3.6575965866495 19.285816528620003
O 1.568095127969 0.8808126440224999 11.104326867343
O 1.506092042969 0.8109531790225 23.240115652343
O -0.0674181470309999 3.6948917490224993 11.111666372343
O -0.1294212320309999 3.6250322840224993 23.247455157343
O 4.822992192969 0.8904770140224999 11.120799802343
O 4.760989107969 0.8206175490225 23.256588587343
O 3.187478917969001 3.7045561190225 11.128139307343
O 3.1254758329690007 3.6346966540225 23.263928092343
O -0.0107144229689999 1.8730713659775 1.055274357657
O -0.0727175079689999 1.8032119009775 13.191063142657002
O -1.6462276979690005 4.6871504709775 1.062613862657
O -1.7082307829690004 4.617291005977499 13.198402647657
O 3.2441826420310007 1.8827357359775 1.071747292657
O 3.1821795570310005 1.8128762709775 13.207536077657002
O 1.608669367031 4.6968148409775 1.079086797657
O 1.546666282031 4.6269553759775 13.214875582657
O -0.01550077125 -0.01746486625 3.03394719625
O -0.07750385625 -0.08732433125 15.16973598125
O 4.85878008375 2.81594297875 3.07423257125
O 4.79677699875 2.74608351375 15.21002135625
O 3.23939629375 -0.00780049625 3.05042013125
O 3.1773932087500003 -0.07765996125 15.18620891625
O 1.6038830187500002 2.80627860875 3.05775963625
O 1.5418799337500002 2.73641914375 15.19354842125
O -0.04650231375 -0.05239459875 9.10184158875
O -0.10850539875 -0.12225406375 21.23763037375
O 4.827778541250001 2.78101324625 9.14212696375
O 4.76577545625 2.71115378125 21.27791574875
O 3.20839475125 -0.04273022875 9.11831452375
O 3.14639166625 -0.11258969375 21.25410330875
O 1.57288147625 2.77134887625 9.12565402875
O 1.51087839125 2.70148941125 21.26144281375
