30   
   
Ga -0.00235082161236 0.00449585324736 2.06356805933616
In -0.01030116661236 0.01970057324736 9.04243787933616
Ga -0.01354986838764 0.02591358675264 11.89417158066384
Ga -0.00559952338764 0.01070886675264 4.91530176066384
Ga 2.5853858312941456 1.541318101659362 6.715738652871913
Al 2.5774354862941458 1.556522821659362 13.694608472871913
In 2.5900874745188656 1.532326395164642 2.588602534199593
Ga 2.5821371295188658 1.547531115164642 9.567472354199593
Ga -0.0385980845188652 3.0334512648353584 11.362163445800409
Ga -0.0306477395188651 3.0182465448353586 4.383293625800407
In -0.0338964412941451 3.0244595583406384 7.235027327128086
In -0.0259460962941451 3.0092548383406386 0.256157507128087
O 3.6110826281836 0.0386005281332 3.4934205238216
O 0.7825704524088002 1.3970577678792002 3.4872984595224
O -1.8381885180924 3.1225170039876 3.480612086656
O 1.768918937591201 3.1687198921208006 10.4634675204776
O -0.8220425819076 1.3985715260124003 10.464407953344
O 1.5847371718164005 0.0364980418668 10.4700650561784
O 0.9870987910901056 1.530733646545202 8.139845177357353
O 3.370307105315306 2.933880016291202 8.139469053058153
O 3.393878544814106 0.168660162399602 8.145502280191753
O 1.8051662004977052 0.139764480532802 1.164872134013353
O 1.781594760998906 2.904984334424402 1.1588389068797529
O 4.188374514722906 1.542910850278802 1.164496009714153
O -1.636885124722905 3.0228668097211986 12.786269970285849
O 0.7463231895022945 4.426013179467198 12.785893845986648
O 0.7698946290010947 1.660793325575598 12.791927073120249
O -0.8188177153153052 1.631897643708798 5.811296926941847
O -0.8423891548141053 4.397117497600398 5.805263699808247
O 1.5643905989098943 3.0350440134547987 5.810920802642647
