80   
   
In 7.212885292500002 2.401792685 7.1967139275
Al 2.4028290675 7.198107015000001 7.2109870225
Ga 7.198714617500001 7.211778855 2.4000453025
Al 7.206183847500002 7.205005095000001 7.203319822500001
Al 2.3953598375 7.204880775 2.4077125025000004
In 7.205416062500001 2.4085664450000004 2.3934394075000003
Al 2.4095305125 2.394894605 7.2043811275000005
Al 2.4020612825 2.4016683650000004 2.4011066075
Ga 7.20625565326 4.48016732612 4.7979304141400005
Ga 2.38873019826 9.28325541612 0.00892898914
In 7.197875026740001 5.14017797388 -0.00444570414
In 4.80026393486 7.205403550680001 4.47889349514
In 0.01107982986 2.38851930068 9.28322932014
In -0.00207502986 7.19758423932 5.139806029860001
In 4.48122905496 4.799480780560001 7.204371844600001
Ga 9.28381604996 0.00994021056 2.3868242296
In 5.14118675004 -0.00279349056 7.196723210400001
Ga 2.40198947674 5.12650613388 4.8064960158600005
In 7.204576471740001 0.33696556388 -0.01105159914
In 2.39543164326 4.48004300612 0.00232309414
Al 4.807981195140001 2.4012699093200003 5.125532934860001
Al -0.00954425986 7.204357999320001 0.3365315098600001
In 0.00361059986 2.3952930606800003 4.479954800140001
In 5.12701607504 4.807192679440001 2.4000545854000004
Ga 0.33783197004 -0.00969157056 7.2043904104
Al 4.48046126996 0.00304213056 2.3944914296000004
In 2.40869092174 0.3232937238800001 4.799890120860001
Al 4.800511965140001 2.40804366932 0.3222584148600001
Ga 0.32366129504 4.800294599440001 2.4077217854
Al 7.19955420826 9.28337973612 4.80453630914
Al 4.807733164860001 7.198629790680001 9.282168015140002
Al 9.28458383496 4.806378860560001 7.1967046446000005
O 5.96071902697 3.755778550700001 6.2975546521300005
O 3.65121571805 8.55313294854 8.11387202265
O 8.44807245255 5.860339923060001 1.4931733583500002
O 5.96060562743 5.8474322277 8.10646604187
O 6.299532617420001 5.959736589040001 3.754292618040001
O 8.1162799383 3.6500145503200008 8.551513441240001
O 1.4959496703 8.447555602880001 5.85962257416
O 8.108850598979998 5.95937690776 5.84563744156
O 3.75669298732 6.298809518080001 5.95873158864
O 8.553942793600001 8.11496686904 3.64797643556
O 5.861541116000001 1.4950823157600002 8.446485544840002
O 5.848435928080001 8.10782494712 5.95787250596
O 3.64752610303 5.850894909300001 3.30687177787
O 5.95702941195 1.05354051146 1.49055440735
O 1.16017267745 3.746333536940001 8.111253071650001
O 3.64763950257 3.7592412323 1.49796038813
O 3.30871251258 3.6469368709600007 5.85013381196
O 1.4919651917 5.956658909680002 1.0529129887600002
O 8.1122954597 1.1591178571199998 3.74480385584
O 1.49939453102 3.64729655224 3.758788988440001
O 5.85155214268 3.30786394192 3.645694841360001
O 1.0543023364000002 1.4917065909600002 5.956449994440001
O 3.746704014 8.11159114424 1.1579408851600002
O 3.75980920192 1.49884851288 3.64655392404
O 1.14319357197 8.5588666407 1.5085532271300002
O 8.45380271305 3.76359237854 3.29632440765
O 3.65888834755 1.0434556730600002 6.297509183350001
O 1.15648306243 1.0440954977 3.30425282687
O 1.51034851242 1.1428523390399998 8.558628443040002
O 3.2987544833 8.453102640320001 3.762512016240001
O 6.298536665300001 3.65801503288 1.04207495916
O 3.30472803398 1.1560401777599998 1.04342422656
O 8.559279982319998 1.50926894808 1.14118397364
O 3.7647586886 3.29808261904 8.452312260560001
O 1.0440156610000002 6.298170405760001 3.65748411984
O 1.04431336308 3.30448821712 1.15565929096
O 8.46505155803 1.0478068193 8.095873202870001
O 1.15444241695 5.84308108146 6.308102022350001
O 5.94935678245 8.563217786940001 3.30691724665
O 8.45176206757 8.5625779623 6.300173603130001
O 8.097896617579998 8.463821120960002 1.04579798696
O 6.3094906467000005 1.15357081968 5.8419144137600005
O 3.3097084647 5.948658427120001 8.562351470840001
O 6.303517096020001 8.450633282240004 8.561002203440001
O 1.0489651476800002 8.09740451192 8.463242456360001
O 5.8434864414000005 6.308590840960001 1.15211416944
O 8.564229469 3.3085030542400005 5.946942310160001
O 8.563931766920001 6.30218524288 8.448767139040001
