80   
   
Ga 10.90885672811 7.37936e-06 1.211122441085
Ga 10.90885038311 3.18488778936 1.211117031085
Ga 23.26730231811 1.706936e-05 1.174419556085
Ga 23.26729597311 3.18489747936 1.174414146085
Ga -0.13563217811 -4.65936e-06 4.822834983915
Ga -0.1356385231100001 3.18487575064 4.822829573915
Ga 12.22281341189 5.03064e-06 4.786132098915
Al 12.22280706689 3.18488544064 4.786126688915
Ga 4.729630760610001 1.5924427393599998 1.229471178585
Ga 4.729624415610001 4.77732314936 1.229465768585
Al 17.088076350609995 1.5924524293599998 1.192768293585
Ga 17.08807000561 4.77733283936 1.192762883585
Ga 6.043587444390001 1.59244039064 4.804480836415
Ga 6.043581099390001 4.77732080064 4.804475426415
In 18.40203303439 1.59245008064 4.767777951415001
Al 18.40202668939 4.77733049064 4.767772541415001
In 9.30598793525 1.59244357287 4.1336031413750005
In 9.30598159025 4.77732398287 4.1335977313750005
In 21.66443352525 1.59245326287 4.096900256375
In 21.66442718025 4.777333672869999 4.096894846375
In 1.46723026975 1.59243955713 1.900348873625
In 1.4672239247500003 4.77731996713 1.900343463625
In 13.82567585975 1.59244924713 1.863645988625
In 13.82566951475 4.77732965713 1.863640578625
Ga 3.1267683127500003 -1.47713e-06 4.151957288875001
Ga 3.1267619677500003 3.18487893287 4.151951878875001
Ga 15.48521390275 8.21287e-06 4.115254403875
Ga 15.48520755775 3.18488862287 4.115248993875
In 7.64645623725 4.19713e-06 1.882000136125
In 7.64644989225 3.18488460713 1.881994726125
In 20.00490182725 1.388713e-05 1.845297251125
In 20.00489548225 3.18489429713 1.845291841125
O 9.52769290845 4.96774e-06 2.622525269575
O 9.527686563450002 3.18488537774 2.622519859575
O 21.88613849845 1.465774e-05 2.585822384575
O 21.88613215345 3.18489506774 2.585816974575
O 1.24553164155 -2.24774e-06 3.411432155425
O 1.24552529655 3.18487816226 3.411426745425
O 13.603977231550001 7.44226e-06 3.374729270425
O 13.60397088655 3.18488785226 3.374723860425
O 3.3484669409500007 1.59244032774 2.640874007075
O 3.3484605959500007 4.77732073774 2.640868597075
O 15.70691253095 1.5924500177399998 2.604171122075
O 15.706906185950004 4.77733042774 2.604165712075
O 7.424751264050002 1.59244280226 3.393078007925
O 7.42474491905 4.77732321226 3.393072597925
O 19.78319685405 1.59245249226 3.356375122925
O 19.78319050905 4.77733290226 3.356369712925
O 8.908455342049999 1.88785e-06 5.3722407669250005
O 8.90844899705 3.18488229785 5.3722353569250005
O 21.266900932050003 1.157785e-05 5.335537881925
O 21.266894587050004 3.18489198785 5.335532471925
O 1.86476920795 8.3215e-07 0.661716658075
O 1.86476286295 3.18488124215 0.661711248075
O 14.22321479795 1.052215e-05 0.6250137730750001
O 14.223208452950002 3.18489093215 0.625008363075
O 2.729229374550001 1.59243724785 5.390589504425
O 2.729223029550001 4.77731765785 5.390584094425
O 15.087674964549997 1.59244693785 5.353886619425
O 15.08766861955 4.77732734785 5.353881209425
O 8.043988830450001 1.59244588215 0.643362510575
O 8.04398248545 4.77732629215 0.6433571005750001
O 20.40243442045 1.59245557215 0.606659625575
O 20.40242807545 4.77733598215 0.606654215575
O -1.12838862286 1.59243506505 4.51035109379
O -1.12839496786 4.777315475049999 4.51034568379
O 11.23005696714 1.59244475505 4.47364820879
O 11.23005062214 4.77732516505 4.47364279879
O 11.901606827860002 1.59244806495 1.52360092121
O 11.90160048286 4.77732847495 1.52359551121
O 24.26005241786 1.59245775495 1.4868980362100002
O 24.26004607286 4.77733816495 1.48689262621
O 5.050837344640001 -2.9495e-07 4.49200235629
O 5.0508309996400005 3.18488011505 4.49199694629
O 17.40928293464 9.39505e-06 4.45529947129
O 17.40927658964 3.18488980505 4.45529406129
O 5.72238720536 3.01495e-06 1.54195506871
O 5.72238086036 3.18488342495 1.54194965871
O 18.08083279536 1.270495e-05 1.50525218371
O 18.080826450360004 3.18489311495 1.5052467737100002
