80   
   
Ga 7.01245192 2.33571931 6.98005278
Ga 2.3361838300000004 6.98853183 7.00364987
Al 6.986988695000001 7.00998307 2.324758015
Ga 7.000981905000001 7.000386089999999 6.989340285000001
Ga 2.32219062 6.99812881 2.3390676000000004
Al 6.99845871 2.34531629 2.3154705100000004
Al 2.347653845 2.32386505 6.994362365000001
Ga 2.333660635 2.33346203 2.3297800950000003
In 7.00050026852 4.35565384896 4.65177384716
Al 2.31023896852 9.01806334896 0.01078866716
Al 6.984947136480001 4.99964551104 -0.01154532216
Ga 4.66063472422 6.999910044639999 4.347012348140001
Ga 0.02129987422 2.31379202464 9.01661669814
Ga -0.00226027422 6.986750595359999 4.99570512186
Ga 4.3571116059 4.66131948032 6.992824376780001
Ga 9.0193864859 0.01810394032 2.3046450167800003
Al 5.002994159100001 -0.00173512032 6.98159076822
Ga 2.33414227148 4.97819427104 4.667346532840001
Al 6.99641715148 0.33497873104 -0.02083282716
Ga 2.32170898352 4.35339656896 0.00150116216
In 4.67400781578 2.33393807536 4.97210803186
Ga -0.01625348422 6.99634757536 0.3311228518600001
Ga 0.00730666422 2.32338900464 4.3520344281400005
In 4.977530934100002 4.67252863968 2.32629600322
Al 0.3381960841000001 -0.01358938032 6.995900353220001
Al 4.354588410900001 0.00624968032 2.31895460178
Ga 2.34561228648 0.3135274910400001 4.65805902784
Ga 4.66001460578 2.34353505536 0.30752576186
Ga 0.3127328591 4.6606743796800005 2.3406055882200003
Al 6.98903025352 9.02032062896 4.66106135216
Al 4.67462793422 6.99031306464 9.01159461814
Al 9.0219096809 4.67317374032 6.97851479178
O 5.79373915279 3.6498774666 6.109450881750001
O 3.54842750875 8.305245737320002 7.87948992107
O 8.20044001525 5.699433377879999 1.4414769797300002
O 5.79399967321 5.6800637182 7.86738316745
O 6.116934946020001 5.79223475796 3.6404456658200006
O 7.89039783942 3.54805492532 8.29518952946
O 1.45227350278 8.201822940279998 5.69334262314
O 7.877000061779999 5.7925076764400005 5.66882313158
O 3.65017501537 6.117412591480001 5.78507712589
O 8.303943623930001 7.887788111159998 3.5352601531700003
O 5.70277346027 1.45292383924 8.19513342223
O 5.67971425043 7.87649575812 5.78233024871
O 3.54090338721 5.6839706534 3.20966949825
O 5.78621503125 1.02860238268 1.4396304589300002
O 1.13420252475 3.63441474212 7.87764340027
O 3.5406428667900003 3.6537844018 1.45173721255
O 3.21770759398 3.54161336204 5.6786747141800005
O 1.44424470058 5.78579319468 1.02393085054
O 7.88236903722 1.1320251797199998 3.62577775686
O 1.45764247822 3.54134044356 3.65029724842
O 5.68446752463 3.21643552852 3.53404325411
O 1.0306989160700002 1.44606000884 5.783860226830001
O 3.63186907973 7.880924280759999 1.12398695777
O 3.65492828957 1.4573523618800002 3.5367901312900005
O 1.1034778527900002 8.312286966600002 1.46846570175
O 8.21070238875 3.662030197320001 3.19131056107
O 3.56110516525 1.01331535788 6.111081329730001
O 1.12667840321 1.0131396582 3.20782297745
O 1.4776000960200002 1.10611673796 8.31005001582
O 3.20013653942 8.210464425320001 3.654204349460001
O 6.114548382780002 3.55860740028 1.00516326314
O 3.20967879178 1.12558361644 1.00926294158
O 8.312449895370003 1.47419705148 1.09689776589
O 3.66460877393 3.20167009116 8.20486450317
O 1.0125121602700002 6.11533333924 3.55414824223
O 1.01239298043 3.2095716981199995 1.12277005871
O 8.23116468721 1.0215611534 7.85065467825
O 1.12394015125 5.67181792268 6.12780981893
O 5.773537374749999 8.320532762120001 3.20803905027
O 8.207964136790002 8.3207084618 6.111297402550001
O 7.85704244398 8.22773138204 1.00907036418
O 6.134506000580001 1.12338369468 5.664916030540001
O 3.22009415722 5.775240719720001 8.313957116860001
O 6.124963748220001 8.20826450356 8.30985743842
O 1.0221926446300005 7.85965106852 8.22222261411
O 5.67003376607 6.13217802884 1.1142558768300002
O 8.322130379730002 3.21851478076 5.76497213777
O 8.322249559570002 6.12427642188 8.196350321290002
