80   
   
Al 6.8953553775 2.298885795 6.8631688275
Ga 2.2958726275 6.87296226 6.886240352500001
Ga 6.8687970425 6.89447323 2.2851070275
Al 6.8828678775 6.885566265 6.871935517500001
Al 2.2818017925 6.881869225 2.2994118625
Al 6.8812845425 2.30779276 2.2763403375
Al 2.3083601275000003 2.28628179 6.877473662500001
Al 2.2942892925 2.295188755 2.2906451725
Al 6.88292536 4.28478524054 4.57354179258
Al 2.269371775 8.86776867054 0.00978482758
Al 6.867156225 4.91748074946 -0.01209442758
Al 4.58137801822 6.88432341862 4.2737693526800005
Al 0.02094110322 2.27613197862 8.86613598768
In -0.00370359822 6.870508066379999 4.911882862320001
Al 4.2836983255000005 4.58506695516 6.87567731878
Al 8.869110240499998 0.01989745516 2.26577730378
Al 4.9200171795 0.00010062984 6.864965171220001
Al 2.2942318100000003 4.89596977946 4.58903889742
In 6.879643725 0.33080027946 -0.02086111758
Al 2.281859275 4.28108820054 0.00101813758
Al 4.59577915178 2.29643160138 4.888811337320001
Al -0.01777443322 6.87941503138 0.3250543723200001
Al 0.00687026822 2.28503894362 4.2793074976800005
In 4.8934588445000005 4.59568806484 2.28690337122
Al 0.3330219295 -0.01250337516 6.8792700062200005
Al 4.2821149905 0.00729345016 2.28008213878
Al 2.30671931 0.3092893094600001 4.58027220742
Al 4.58170831678 2.30533856638 0.30198284732
Al 0.3064635945 4.58308405984 2.30120820622
Al 6.87043786 8.87146571054 4.58230848258
Al 4.59544885322 6.87541645362 8.86059784268
In 8.8706935755 4.59767096016 6.86137248378
O 5.696569820520001 3.59072715566 6.007036535060001
O 3.48761523448 8.168008684420004 7.7473170581
O 8.06229196552 5.60598088818 1.4165918077
O 5.69641590448 5.58717082174 7.73550632414
O 6.013656660970001 5.69705499073 3.5790026312600003
O 7.75843170997 3.49128050601 8.1562444921
O 1.42630279503 8.06564139339 5.5977233667
O 7.7445017590299985 5.697910659870001 5.57348123494
O 3.5880945209000004 6.01653647195 5.68798284391
O 8.1636404701 7.75800767687 3.4752966091500004
O 5.6078287841 1.43071972633 8.05813006065
O 5.5833291499 7.746623674849999 5.68504221129
O 3.48058734948 5.59002786434 3.15554415494
O 5.68954193552 1.01274633558 1.4152636319
O 1.1148652044799998 3.57477413182 7.7459888823
O 3.4807412655200003 3.5935841982600003 1.42707436586
O 3.16350050903 3.48370002927 5.583578058740001
O 1.4187254600300003 5.68947451399 1.0063361979
O 7.75085437497 1.1151136266099997 3.5648573233000005
O 1.43265541097 3.48284436013 3.5890994550600004
O 5.5890626491 3.16421854805 3.4745978460900004
O 1.0135166999 1.42274734313 5.6872840808500005
O 3.5693283859000005 7.75003529367 1.10445062935
O 3.593828020100001 1.43413134515 3.47753847871
O 1.08301623552 8.17371058566 1.44327957006
O 8.073027149479998 3.60283918442 3.1374170431
O 3.50185505052 0.99778944818 6.008958442700001
O 1.10783731948 0.99679331174 3.15421597914
O 1.4532197459700005 1.0888635507299995 8.171369266260001
O 3.1448781249700004 8.07426393601 3.5924875271000003
O 6.011714710030001 3.5004718933900003 0.9878233517
O 3.15592317403 1.10753314987 0.99219088994
O 8.1735064359 1.4513669719500002 1.07808282891
O 3.603203555100001 3.14981623687 8.067663244150001
O 0.9942751991 6.013703156330001 3.4943730956500003
O 0.9947505649 3.15624616485 1.10375186629
O 8.09414093448 1.0070444343400002 7.71930111994
O 1.10413002052 5.57791583558 6.0251636469
O 5.67530211948 8.18296557182 3.1536222473
O 8.069319850520001 8.183961708260004 6.0083647108600005
O 7.72393742403 8.09189146927 0.99121142374
O 6.032279045030001 1.10649108399 5.5700931629
O 3.16544245997 5.680283126610001 8.174757338300001
O 6.021233995970001 8.07322187013 8.17038980006
O 1.0036507341 7.729388048049999 8.08449786109
O 5.573953614900001 6.030938783130001 1.09491744585
O 8.1828819709 3.16705186367 5.66820759435
O 8.1824066051 6.024508855150001 8.05882882371
