40   
   
Ga 0.0037259147809266 -0.0026163397270581 1.911882901285605
Al 0.0254093052190734 -0.0178424302729419 13.038305768714393
Ga -1.4641127514015708 4.351991331276468 4.888067224463614
Ga 0.01006006425337 1.796785571117905 4.881563425590093
Ga 1.4857961808751952 4.351021706611002 4.882394422817615
In 1.5817317891248053 0.8874357133889978 10.069505187182385
Ga 4.531640721401572 0.8864660887235299 10.063832385536385
Al 3.05746790574663 3.4416718488820948 10.070336184409907
Ga 0.0060764661145132 3.503096064235672 2.5725384582542987
In 3.061451503885487 1.735361355764328 12.3793611517457
In 0.0171692879920936 3.49530667766353 8.264610800681458
Al 3.0503586820079067 1.7431507423364694 6.687288809318542
Ga 0.01456761 -0.010229385 7.475094334999999
Ga 3.03678341 -0.00099818 -0.005839865
In -1.517587035 2.630456275 0.006695335
In 1.519196375 2.629458095 0.00085547
O 1.5249130215833802 2.6252414741735683 3.7689751675887377
O 0.0089520810913825 5.2528792152749055 3.7756633285372847
O -1.5086164749928048 2.626238584623698 3.7748087751733905
O 4.576144444992805 2.612218835376301 11.177090834826608
O 1.5426149484166198 2.613215945826431 11.182924442411261
O 3.0585758889086168 -0.0144217952749062 11.176236281462714
O 0.028041213915439 3.4876724043708363 13.843334550159843
O 3.0394867560845613 1.750785015629163 1.1085650598401546
O 0.0075474647560944 -0.0052998345482904 3.8728391988729376
O 0.0215877552439056 -0.0151589354517096 11.077349471127059
O -1.4357077274332193 4.3364609191307 1.2517816618019202
O 0.0029862707791967 1.8427511231698457 1.2454343894159767
O 1.4432059460998667 4.335514630356471 1.246245387089432
O 1.6243220239001332 0.9029427896435288 13.705654222910567
O 4.503235697433218 0.9019965008693 13.70011794819808
O 3.0645416992208028 3.3957062968301535 13.70646522058402
O -1.6208666345125344 4.441617633093773 8.781937233953915
O 0.0175895304422615 1.6016570897976323 8.77470864498064
O 1.657783212246962 4.4405399524487645 8.77563224940207
O 1.4097447577530382 0.7979174675512356 6.176267360597929
O 4.688394604512535 0.7968397869062276 6.169962376046084
O 3.0499384395577387 3.636800330202368 6.17719096501936
O 0.013248122077576 3.498060122860682 6.252538462514414
O 3.0542798479224245 1.7403972971393178 8.699361147485586
