30   
   
Ga -0.0004747936138 0.00150218966016 1.9652963462118
Ga -0.0020805186138 0.00658250966016 8.6118168212118
Ga -0.0027366563862 0.00865845033984 11.3277446037882
Al -0.0011309313862 0.00357813033984 4.6812241287882
Al 2.4416829475780655 1.4249101889024427 6.395449051911975
Al 2.440077222578066 1.4299905089024427 13.041969526911972
Al 2.442632534805666 1.421905809582123 2.464856359488375
Al 2.441026809805666 1.4269861295821231 9.111376834488375
Ga -0.0108370048056657 2.8340152504178766 10.825431650511623
Al -0.0092312798056657 2.828934930417877 4.178911175511625
Al -0.0098874175780657 2.831010871097557 6.894838958088026
Al -0.0082816925780657 2.825930551097557 0.2483184830880251
O 3.3943413218368006 0.0124612790472 3.3233783227736
O 0.7451858758928002 1.3032713222711998 3.3224168468016
O -1.7069288052296003 2.9376482986816 3.3212326029248
O 1.6866096541072004 2.9526497377288 9.9678711631984
O -0.7559532847704 1.3039697813184 9.9688851670752
O 1.4971248481632002 0.0120023409528 9.9698328672264
O 0.9418214430286658 1.421566298289483 7.753360788473774
O 3.1873436170846663 2.7266793215134824 7.752569552501774
O 3.194899575962266 0.129598857923883 7.754308488624974
O 1.696971865299066 0.120136676971083 1.1077358588985748
O 1.6894159064214662 2.7172171405606824 1.1059969227753748
O 3.942494039355066 1.425249700195083 1.1069446229265747
O -1.5106985093550658 2.8306713598049167 12.183343387073425
O 0.7348236647009342 4.135784383028917 12.182552151101426
O 0.7423796235785344 1.5387039194393168 12.184291087224624
O -0.7555480870846657 1.529241738486517 5.537718457498225
O -0.7631040459622656 4.126322202076117 5.535979521375025
O 1.489974086971334 2.8343547617105167 5.536927221526224
