80   
   
Ga -0.0219635725 -0.0161718975 6.074907485
In -0.0658907175 -0.0485156925 18.224722455
Ga 4.9142662525 2.6912311225 6.09956302
In 4.8703391075 2.6588873275 18.24937799
Ga 3.2274607925 -0.0874331525 6.08612095
In 3.1835336475 -0.1197769475 18.23593592
Ga 1.6648418875 2.7624923775 6.088349555
Ga 1.6209147425 2.7301485825 18.238164525
In 0.0 0.0 0.0
Ga -0.043927145 -0.032343795 12.14981497
Ga 4.936229825 2.70740302 0.024655535
In 4.89230268 2.675059225 12.174470505
Ga 3.249424365 -0.071261255 0.011213465
Ga 3.20549722 -0.10360505 12.161028435
Ga 1.68680546 2.778664275 0.01344207
Ga 1.642878315 2.74632048 12.16325704
Ga 0.0304095925315001 1.8679230332565 3.0426767784775
Ga -0.0135175524684999 1.8355792382565 15.1924917484775
Ga -1.5322093124685 4.717848563256501 3.0449053834775
Ga -1.5761364574685 4.685504768256501 15.1947203534775
Ga 3.2798339575315 1.7966617782565 3.0538902434775
Ga 3.2359068125315 1.7643179832565 15.2037052134775
Ga 1.7172150525314995 4.6465873082565015 3.0561188484775
Ga 1.6732879075314997 4.6142435132565005 15.2059338184775
Ga 1.6124687224685 0.8783974467435 9.1205802615225
Ga 1.5685415774685 0.8460536517435 21.270395231522496
Ga 0.0498498174685002 3.7283229767435 9.1228088665225
Ga 0.0059226724685002 3.6959791817435 21.272623836522495
Ga 4.861893087468499 0.8071361917434999 9.131793726522499
Ga 4.8179659424685 0.7747923967435 21.2816086965225
Ga 3.2992741824685 3.6570617217435 9.1340223315225
Ga 3.2553470374685 3.6247179267435 21.283837301522496
O 0.0232099334660001 1.862621885256 5.0340314520605
O -0.0207172115339999 1.830278090256 17.183846422060498
O -1.539408971534 4.712547415256001 5.0362600570605
O -1.583336116534 4.680203620256001 17.1860750270605
O 3.272634298466 1.791360630256 5.0452449170605
O 3.228707153466 1.759016835256 17.1950598870605
O 1.7100153934659994 4.641286160256001 5.0474735220605
O 1.6660882484659991 4.608942365256 17.197288492060498
O 1.619668381534 0.883698594744 7.129225587939499
O 1.575741236534 0.851354799744 19.279040557939496
O 0.0570494765340002 3.733624124744 7.131454192939499
O 0.0131223315340002 3.701280329744 19.281269162939495
O 4.869092746533999 0.812437339744 7.140439052939499
O 4.825165601534 0.780093544744 19.2902540229395
O 3.3064738415340003 3.662362869744 7.142667657939499
O 3.262546696534 3.630019074744 19.292482627939496
O 1.605269063403 0.873096298743 11.1119349351055
O 1.5613419184030002 0.840752503743 23.261749905105496
O 0.0426501584030002 3.723021828743 11.114163540105501
O -0.0012769865969998 3.690678033743 23.2639785101055
O 4.854693428403 0.801835043743 11.123148400105501
O 4.810766283403 0.769491248743 23.272963370105497
O 3.292074523403 3.651760573743 11.1253770051055
O 3.248147378403 3.619416778743 23.275191975105496
O 0.0376092515970001 1.873224181257 1.0513221048944998
O -0.0063178934029999 1.840880386257 13.201137074894499
O -1.525009653403 4.723149711257001 1.0535507098944998
O -1.568936798403 4.690805916257001 13.2033656798945
O 3.287033616597 1.801962926257 1.0625355698944998
O 3.243106471597 1.769619131257 13.2123505398945
O 1.7244147115969994 4.6518884562570015 1.0647641748944998
O 1.6804875665969994 4.6195446612570015 13.214579144894499
O -0.01098178625 -0.00808594875 3.0374537425
O -0.05490893125 -0.04042974375 15.1872687125
O 4.92524803875 2.6993170712500003 3.0621092775
O 4.88132089375 2.66697327625 15.211924247499997
O 3.23844257875 -0.07934720375 3.0486672075
O 3.19451543375 -0.11169099875 15.1984821775
O 1.67582367375 2.7705783262500003 3.0508958125
O 1.63189652875 2.7382345312500003 15.2007107825
O -0.03294535875 -0.02425784625 9.1123612275
O -0.07687250375 -0.05660164125 21.2621761975
O 4.90328446625 2.6831451737500003 9.1370167625
O 4.85935732125 2.65080137875 21.2868317325
O 3.21647900625 -0.09551910125 9.1235746925
O 3.17255186125 -0.12786289625 21.2733896625
O 1.65386010125 2.7544064287500003 9.1258032975
O 1.60993295625 2.72206263375 21.2756182675
