80   
   
Al -0.0326893 -0.051513905 6.088627145
Al -0.0980679 -0.154541715 18.265881435
In 4.842317195 2.8923661499999995 6.137963515
Al 4.776938595 2.78933834 18.315217805
Al 3.25447621 0.013230935 6.106372885
Al 3.18909761 -0.089796875 18.283627175
In 1.555151685 2.82762131 6.120217775
Al 1.489773085 2.7245935 18.297472065
Al 0.0 0.0 0.0
Ga -0.0653786 -0.10302781 12.17725429
In 4.875006495 2.943880055 0.04933637
In 4.809627895 2.840852245 12.22659066
In 3.28716551 0.06474484 0.01774574
In 3.22178691 -0.03828297 12.19500003
Al 1.587840985 2.879135215 0.03159063
Al 1.522462385 2.776107405 12.20884492
Ga -0.053502113882 1.871895126647 3.059457231316
In -0.118880713882 1.768867316647 15.236711521316
In -1.7528266388820002 4.686285501646999 3.0733021213160003
In -1.8182052388820005 4.583257691647 15.250556411316
Al 3.2336633961179992 1.936639966647 3.0772029713160003
Al 3.1682847961179994 1.833612156647 15.254457261316
Ga 1.5343388711179993 4.751030341647 3.091047861316
Ga 1.4689602711179992 4.648002531647 15.268302151316
In 1.575964498882 0.904212278353 9.149387688684
In 1.510585898882 0.801184468353 21.326641978684
In -0.123360026118 3.718602653353 9.163232578684
In -0.188738626118 3.615574843353 21.340486868684
Al 4.863130008882 0.968957118353 9.167133428684
Ga 4.797751408882 0.865929308353 21.344387718684
In 3.163805483882 3.783347493353 9.180978318684
Al 3.098426883882 3.680319683353 21.358232608684
O -0.064217666422 1.855008868588 5.0553092094470005
O -0.129596266422 1.751981058588 17.232563499447
O -1.7635421914220002 4.669399243588 5.069154099447
O -1.8289207914220005 4.566371433588 17.246408389447
O 3.2229478435779995 1.919753708588 5.073054949447
O 3.157569243578 1.816725898588 17.250309239447
O 1.5236233185779993 4.734144083588 5.086899839447
O 1.4582447185779992 4.631116273588 17.264154129447
O 1.586680051422 0.921098536412 7.153535710552999
O 1.521301451422 0.818070726412 19.330790000552998
O -0.112644473578 3.7354889114119993 7.167380600553
O -0.178023073578 3.632461101412 19.344634890553007
O 4.873845561422 0.985843376412 7.171281450553
O 4.808466961422 0.882815566412 19.348535740552997
O 3.174521036422 3.800233751412 7.185126340553
O 3.109142436422 3.697205941412 19.362380630552998
O 1.565248946342 0.887326020294 11.145239666815
O 1.499870346342 0.7842982102939999 23.322493956815002
O -0.134075578658 3.701716395293999 11.159084556815
O -0.199454178658 3.598688585293999 23.336338846815
O 4.852414456342 0.952070860294 11.162985406815
O 4.787035856342 0.849043050294 23.340239696815
O 3.153089931342 3.766461235294 11.176830296815
O 3.087711331342 3.663433425294 23.354084586815002
O -0.042786561342 1.888781384706 1.063605253185
O -0.108165161342 1.785753574706 13.240859543185
O -1.7421110863420002 4.703171759706 1.077450143185
O -1.807489686342 4.600143949705999 13.254704433185
O 3.2443789486579995 1.953526224706 1.081350993185
O 3.179000348658 1.850498414706 13.258605283185002
O 1.5450544236579993 4.767916599706 1.095195883185
O 1.4796758236579992 4.664888789706 13.272450173185
O -0.01634465 -0.0257569525 3.0443135725
O -0.08172325 -0.1287847625 15.2215678625
O 4.858661845 2.9181231025 3.0936499425
O 4.7932832450000005 2.8150952925 15.2709042325
O 3.27082086 0.0389878875 3.0620593125
O 3.20544226 -0.0640399225 15.2393136025
O 1.571496335 2.8533782625 3.0759042025000003
O 1.506117735 2.7503504525 15.2531584925
O -0.04903395 -0.0772708575 9.1329407175
O -0.11441255 -0.1802986675 21.3101950075
O 4.825972545 2.8666091975 9.1822770875
O 4.760593945 2.7635813875 21.3595313775
O 3.23813156 -0.0125260175 9.1506864575
O 3.17275296 -0.1155538275 21.3279407475
O 1.5388070349999998 2.8018643575 9.1645313475
O 1.473428435 2.6988365475 21.3417856375
