80   
   
Al 7.042290965 2.3454295675 7.0116153275
Ga 2.346203765 7.0192412825 7.0342509575
Ga 7.018115875 7.0398547525 2.3356567225
Ga 7.031404545 7.0305109725 7.020652717500001
Al 2.332915095 7.0285850625 2.3492549625000003
Ga 7.029002295 2.3547733475 2.3266193325000004
Ga 2.357090185 2.3341598775 7.025213567500001
Ga 2.343801515 2.3435036575 2.3402175725000003
Al 7.03094369656 4.3740566244600005 4.67302148248
In 2.32156782656 9.05721211946 0.01066111748
Al 7.01617447344 5.020571475540001 -0.01074542748
Al 4.681256190439999 7.03018339454 4.366374112340001
Ga 0.02023050044 2.32448851954 9.05593095734
Ga -0.00213733044 7.01764295046 5.017131807660001
Al 4.37565371196 4.68156908608 7.023857822820001
In 9.05845224196 0.01710115108 2.3162261978200003
Al 5.023727438040001 -0.00197964108 7.012971072180001
Ga 2.34426236344 4.999958005540001 4.68784880752
In 7.02706089344 0.33549007054 -0.01978281748
Al 2.33245424656 4.372130714460001 0.00162372748
Ga 4.69394986956 2.34383123546 4.99449617766
Al -0.01542600044 7.02698673046 0.33213581266
Ga 0.00694183044 2.33383229954 4.370934962340001
Ga 4.99955234804 4.69244554392 2.33701246718
Ga 0.33852665804 -0.01324933108 7.02656931218
Ga 4.37325146196 0.00583146108 2.32982443782
In 2.35514878344 0.31487660054 4.67881141752
Ga 4.68066119956 2.35317501546 0.3095001826600001
Ga 0.31435156804 4.68117585392 2.3506107071800004
Ga 7.020057276559999 9.05913802946 4.682058872480001
Al 4.69454486044 7.02083961454 9.05137010734
Al 9.06085449196 4.69283877608 7.010259582820001
O 5.8185705218 3.66544903495 6.13692016682
O 3.56378426732 8.34160772747 7.91404320614
O 8.23683977828 5.7233485463300005 1.4487933890600002
O 5.818820582599999 5.70463126625 7.90241896298
O 6.1438760025 5.81697993952 3.65703234081
O 7.92402564738 3.56303448856 8.332577450370001
O 1.4588081442199998 8.23787869204 5.71798827743
O 7.9113053559 5.817143454879999 5.694577656390001
O 3.66602197772 6.144053413740001 5.8106182658000005
O 8.3407509022 7.921398726419999 3.5516200068400003
O 5.7265660462 1.45902682798 8.23184996056
O 5.704676223879999 7.9105576068599985 5.8080874918
O 3.5566355382 5.70856559505 3.22395012318
O 5.811421792679999 1.03240690253 1.44682708386
O 1.1383662817199998 3.65066608367 7.91207690094
O 3.5563854774 3.66938336375 1.45845132702
O 3.2313300574999992 3.55703469048 5.70383794919
O 1.45118041262 5.810980141439999 1.0282928396300002
O 7.916397915779998 1.13613593796 3.64288201257
O 1.4639007040999998 3.55687117512 3.66629263361
O 5.709184082279998 3.22996121626 3.5502520242
O 1.0344551578 1.45261590358 5.809250283160001
O 3.6486400138 7.914987802019998 1.12902032944
O 3.67052983612 1.46345702314 3.5527827982000004
O 1.1091946517999998 8.34860452995 1.47455980182
O 8.246582797319999 3.67713979247 3.20641158114
O 3.57581408828 1.0176536713300002 6.138350234060001
O 1.1312175526 1.0176239512499998 3.22198381798
O 1.4828503125 1.11128506452 8.34658918581
O 3.21464977738 8.24618998356 3.670217085370001
O 6.14160667422 3.57341075704 1.01035665243
O 3.2237023258999997 1.1301361398799998 1.01414251139
O 8.348820507719998 1.4795854787399998 1.1029866408
O 3.6797252122 3.21570385142 8.24117685184
O 1.0171901762 6.142182322980001 3.5694895955600003
O 1.01707319388 3.22355029186 1.1276523468
O 8.2660114082 1.0254101000500002 7.88631048818
O 1.1286232626799997 5.69687483753 6.154458708860001
O 5.79939197172 8.35636095867 3.22252005594
O 8.2439885074 8.356390678750001 6.138886472020001
O 7.8923557475 8.26272956548 1.0142811041900002
O 6.16055628262 1.12782464644 5.69065320463
O 3.2335993857799994 5.80060387296 8.350513637570002
O 6.1515037341 8.24387849012 8.346727778610001
O 1.0263855522799998 7.89442915126 8.2578836492
O 5.695480847799999 6.158310778580001 1.11969343816
O 8.3580158838 3.23183230702 5.791380694440001
O 8.35813286612 6.150464338140001 8.233217943200001
