80   
   
In 0.006555425 -0.0511676825 6.255742235
In 0.019666275 -0.1535030475 18.767226705
In 5.22678022 2.8846134825 6.27523058
In 5.23989107 2.7822781175 18.78671505
In 3.4636854400000003 -0.0900148725 6.252452239999999
In 3.47679629 -0.1923502375 18.76393671
In 1.769650205 2.9234606725 6.278520575
In 1.782761055 2.8211253075 18.790005045
In 0.0 0.0 0.0
In 0.01311085 -0.102335365 12.51148447
In 5.220224795 2.935781165 0.019488345
In 5.233335645 2.8334458 12.530972814999998
In 3.457130015 -0.03884719 -0.003289995
In 3.470240865 -0.141182555 12.508194475
In 1.76309478 2.974628355 0.02277834
In 1.77620563 2.87229299 12.53426281
Ga 0.0262952588485001 1.97025118862 3.1441517142775
Ga 0.0394061088485001 1.8679158236199995 15.655636184277501
Ga -1.6677399761515002 4.983726733620001 3.1702200492775
Ga -1.6546291261515005 4.881391368620001 15.6817045192775
In 3.4834252738485003 1.93140399862 3.1408617192775
Ga 3.4965361238485 1.8290686336199995 15.652346189277498
Ga 1.7893900388485 4.944879543620001 3.1669300542775
Ga 1.8025008888485 4.842544178620001 15.678414524277501
In 1.7499103711515005 0.9020418013799998 9.3901110957225
In 1.7630212211515002 0.7997064363799998 21.901595565722495
Ga 0.0558751361514999 3.91551734638 9.416179430722499
In 0.0689859861514999 3.81318198138 21.9276639007225
In 5.207040386151501 0.8631946113799998 9.3868211007225
In 5.220151236151501 0.7608592463799998 21.898305570722496
In 3.5130051511515004 3.87667015638 9.4128894357225
Ga 3.5261160011515007 3.77433479138 21.924373905722497
O 0.0284441271635001 1.9534784222965 5.194784018910499
O 0.0415549771635001 1.8511430572964995 17.7062684889105
O -1.6655911078365002 4.966953967296501 5.2208523539105
O -1.6524802578365003 4.864618602296501 17.732336823910497
O 3.4855741421635003 1.9146312322965 5.1914940239105
O 3.4986849921635 1.8122958672964995 17.702978493910496
O 1.7915389071635 4.928106777296501 5.2175623589105
O 1.8046497571635 4.8257714122965005 17.729046828910494
O 1.7477615028365003 0.9188145677035 7.339478791089498
O 1.7608723528365002 0.8164792027034998 19.8509632610895
O 0.0537262678364999 3.9322901127035 7.365547126089499
O 0.0668371178364999 3.8299547477035 19.8770315960895
O 5.204891517836501 0.8799673777034999 7.336188796089499
O 5.218002367836501 0.7776320127034998 19.8476732660895
O 3.5108562828365004 3.8934429227035 7.362257131089499
O 3.5239671328365008 3.7911075577035 19.8737416010895
O 1.7520592394665002 0.8852690350564998 11.440743400355501
O 1.7651700894665003 0.7829336700564998 23.952227870355493
O 0.0580240044664999 3.8987445800565 11.4668117353555
O 0.0711348544664999 3.7964092150565 23.978296205355495
O 5.209189254466501 0.8464218450564998 11.437453405355502
O 5.222300104466501 0.7440864800564998 23.948937875355494
O 3.5151540194665007 3.8598973900565 11.463521740355501
O 3.5282648694665006 3.7575620250565 23.975006210355495
O 0.0241463905335001 1.9870239549435 1.0935194096444998
O 0.0372572405335001 1.8846885899434995 13.6050038796445
O -1.6698888444665003 5.0004994999435 1.1195877446445
O -1.6567779944665002 4.8981641349435 13.6310722146445
O 3.4812764055335004 1.9481767649435 1.0902294146445
O 3.4943872555335003 1.8458413999434995 13.6017138846445
O 1.7872411705334998 4.9616523099435 1.1162977496445
O 1.8003520205335 4.8593169449435 13.6277822196445
O 0.0032777125 -0.02558384125 3.1278711175
O 0.0163885625 -0.12791920625 15.6393555875
O 5.2235025075 2.91019732375 3.1473594625
O 5.2366133575000005 2.80786195875 15.658843932499996
O 3.4604077275000003 -0.06443103125 3.1245811225
O 3.4735185775 -0.16676639625 15.6360655925
O 1.7663724925000002 2.94904451375 3.1506494575
O 1.7794833425 2.84670914875 15.6621339275
O 0.0098331375 -0.07675152375 9.3836133525
O 0.0229439875 -0.17908688875 21.8950978225
O 5.2300579325 2.85902964125 9.403101697499999
O 5.2431687825 2.75669427625 21.9145861675
O 3.4669631525 -0.11559871375 9.3803233575
O 3.4800740025000003 -0.21793407875 21.8918078275
O 1.7729279175 2.89787683125 9.4063916925
O 1.7860387675 2.79554146625 21.9178761625
