80   
   
Ga 10.84851948769 5.6777e-06 1.204703068075
Ga 10.84851199269 3.1451772327 1.2047076880749998
Al 23.13403134769 1.31777e-05 1.1816072430749998
In 23.13402385269 3.1451847327 1.181611863075
Ga -0.1191578376900002 -3.7377e-06 4.751211706925
Ga -0.1191653326900002 3.1451678173000004 4.751216326925
Al 12.16635402231 3.7623e-06 4.728115881925
Ga 12.16634652731 3.1451753173 4.728120501925
Ga 4.705759810189999 1.5725877052 1.216253290575
Al 4.705752315189999 4.7177592602 1.2162579105749998
Al 16.991271670189995 1.5725952052 1.193157465575
Ga 16.991264175189997 4.7177667602 1.1931620855749998
Ga 6.023594344809999 1.5725857898 4.739666104425
Al 6.023586849809999 4.7177573448 4.739670724425
Ga 18.30910620481 1.5725932898 4.716570279425
In 18.30909870981 4.7177648448 4.716574899425
In 9.2645926827 1.57258827084 4.082179992775
Ga 9.2645851877 4.717759825839999 4.082184612775
Ga 21.5501045427 1.57259577084 4.0590841677750005
Al 21.5500970477 4.71776732584 4.059088787775
In 1.4647614723 1.5725852241600002 1.873739402225
Al 1.4647539773 4.71775677916 1.873744022225
Al 13.7502733323 1.5725927241600002 1.850643577225
In 13.7502658373 4.71776427916 1.850648197225
Ga 3.1218405002000003 -1.25666e-06 4.093725595275
In 3.1218330052 3.1451702983400005 4.093730215275
In 15.4073523602 6.24334e-06 4.0706297702750005
In 15.4073448652 3.14517779834 4.070634390275
In 7.607521149799998 3.19666e-06 1.862189179725
In 7.607513654799998 3.14517475166 1.862193799725
In 19.8930330098 1.069666e-05 1.839093354725
Ga 19.8930255148 3.14518225166 1.839097974725
O 9.48008066645 3.77278e-06 2.593727384925
O 9.480073171450002 3.14517532778 2.593732004925
O 21.76559252645 1.127278e-05 2.570631559925
O 21.76558503145 3.14518282778 2.570636179925
O 1.2492809835499998 -1.83278e-06 3.3621873900749994
O 1.2492734885499996 3.14516972222 3.362192010075
O 13.534792843550001 5.66722e-06 3.3390915650749995
O 13.53478534855 3.14517722222 3.3390961850749994
O 3.33732098895 1.57258580028 2.605277607425
O 3.3373134939499995 4.71775735528 2.605282227425
O 15.62283284895 1.57259330028 2.582181782425
O 15.622825353949997 4.71776485528 2.582186402425
O 7.392033166050002 1.57258769472 3.3506417875749994
O 7.39202567105 4.71775924972 3.3506464075749998
O 19.67754502605 1.57259519472 3.3275459625749995
O 19.67753753105 4.71776674972 3.327550582575
O 8.873428716199998 1.3141e-06 5.302034420125
O 8.8734212212 3.1451728691 5.302039040125
O 21.1589405762 8.8141e-06 5.278938595125
O 21.1589330812 3.1451803691 5.278943215125
O 1.8559329338 6.259e-07 0.653880354875
O 1.8559254388 3.1451721809 0.653884974875
O 14.141444793800002 8.1259e-06 0.630784529875
O 14.1414372988 3.1451796809 0.630789149875
O 2.7306690387 1.5725833416 5.313584642625
O 2.7306615437 4.7177548966 5.313589262625
O 15.0161808987 1.5725908416 5.290488817625
O 15.016173403699996 4.7177623966 5.290493437625
O 7.9986851163 1.5725901534000002 0.6423347523749999
O 7.9986776213 4.7177617084 0.6423393723749999
O 20.2841969763 1.5725976534 0.619238927375
O 20.2841894813 4.7177692084 0.619243547375
O -1.10708130609 1.57258167642 4.4423148025
O -1.10708880109 4.71775323142 4.4423194225
O 11.17843055391 1.57258917642 4.4192189775
O 11.17842305891 4.71776073142 4.4192235975
O 11.83643546109 1.57259181858 1.5136045925
O 11.83642796609 4.71776337358 1.5136092125
O 24.12194732109 1.57259931858 1.4905087675
O 24.12193982609 4.717770873579999 1.4905133874999998
O 5.03567837141 -3.5108e-07 4.43076458
O 5.03567087641 3.1451712039200004 4.4307692
O 17.32119023141 7.14892e-06 4.407668755
O 17.32118273641 3.14517870392 4.407673375
O 5.69368327859 2.29108e-06 1.525150195
O 5.69367578359 3.14517384608 1.5251548149999998
O 17.97919513859 9.79108e-06 1.50205437
O 17.979187643590002 3.14518134608 1.50205899
