40   
   
Ga 4.526103384481622 0.8885853460332929 2.4328563130249594
Ga 3.011912169481621 3.5078897160332927 2.4111085530249587
Al 1.500092199481621 0.8867916710332928 2.417052158024959
Ga 1.44843881051838 4.430370898966707 12.053652191975042
Al -1.5775723744816208 4.428577223966707 12.03784803697504
Al -0.063381159481621 1.809272853966707 12.05959579697504
Al 0.0 0.0 0.0
Al -0.02816584875 0.02811243 5.430971835
Ga -0.04694308125 0.04685405 9.051619725
Al -0.0234876317683792 3.5154668510332927 4.20562834302496
In 2.97201864176838 1.8016957189667069 10.26507600697504
In 2.9884567200000003 0.039276915 7.2570999349999985
In -1.55174568 2.65678761 7.219548019999999
In 1.4742655050000002 2.658581285 7.235352175
In -0.0516534805183792 3.543579281033293 9.63660017802496
Ga 3.00018449051838 1.7735832889667067 4.83410417197504
O -1.5819019210499998 4.4073774684 1.1995413754
O -0.0071430574499999 1.6833009236000005 1.2221590458
O 1.5651497113500008 4.4092428904 1.2159776966
O 1.3833812986500005 0.9079196796 13.2547266534
O 4.53043293105 0.9097851016 13.2711629746
O 2.9556740674499995 3.6338616464000006 13.2485453042
O -0.0700551683683792 3.5619460686332927 13.18483511022496
O 3.01858617836838 1.7552165013667067 1.2858692397750409
O 4.44666499946838 0.9423520173667072 6.077141067375041
O 2.99304143306838 3.4568842125667074 6.056263217775041
O 1.541694261868379 0.9406300893667072 6.061969078575041
O 1.4068367481316213 4.376532480633292 8.408735271424959
O -1.4981339894683794 4.374810552633294 8.39356328262496
O -0.0445104230683792 1.8602783574332928 8.41444113222496
O -0.01840168785 0.0183667876 3.5482349322
O -0.05670724215 0.0565996924 10.9343566278
O -0.0332517926683792 3.5252124934332927 6.088365245824959
O 2.98178280266838 1.791950076566707 8.38233910417504
O 1.5537039815683793 2.604814560566707 3.5910672765750404
O 3.007327547968379 0.0902823653667071 3.6119451261750406
O 4.458674719168379 2.606536488566707 3.6062392653750406
O -1.5101437091683787 2.7106260814332934 10.864465084624959
O 1.394827028431621 2.712348009433293 10.87963707342496
O -0.0587965379683789 5.226880204633293 10.858759223824956
