30   
   
In -0.005165538 0.0063644328 2.0991285441
Al -0.022977738 0.0283107528 9.3375028341
In -0.030458862 0.0375282072 12.3776200359
In -0.012646662 0.0155818872 5.1392457459
In 2.6887097028956237 1.6276739539241192 6.926509035956689
Al 2.6708975028956234 1.649620273924119 14.164883325956689
In 2.699040778895623 1.6149450883241192 2.728251947756689
In 2.6812285788956234 1.6368914083241193 9.966626237756689
In -0.0675193088956232 3.181928741675881 11.740840252243313
In -0.0497071088956232 3.1599824216758807 4.502465962243312
In -0.0571882328956232 3.1691998760758806 7.542583164043312
In -0.0393760328956232 3.147253556075881 0.3042088740433112
O 1.64247546351 0.03129075834 3.62314111926
O 1.85009457139 3.32380104943 3.61385064814
O -0.8521424649000001 1.43080886223 3.6129132876
O 0.7814268986099999 1.47307278057 10.85524155186
O -1.9664402351 3.29901018777 10.8431294924
O 3.77200430649 0.07965666166 10.86665688074
O 4.336350704405622 1.652600279464119 8.450521611116688
O 1.8768239422856232 0.1921293805541191 8.448887519996688
O 1.8417327759956228 3.05211838335412 8.440293779456688
O 3.5109265395056224 3.05048966169412 1.2058734637166888
O 3.546017705795623 0.1905006588941191 1.2144672042566889
O 1.0513997773856232 1.5900187627841191 1.204239372596689
O 1.5801216926143773 3.2068550672158813 13.264852827403312
O -0.879405069505623 1.7463841683058812 13.263218736283312
O -0.914496235795623 4.606373171105881 13.254624995743312
O 0.7546975277143774 4.604744449445881 6.020204680003312
O 0.7897886940043769 1.7447554466458812 6.028798420543312
O -1.7048292344056233 3.144273550535881 6.018570588883312
