80   
   
Ga -0.024326435 -0.0393897375 6.10393334
Al -0.072979305 -0.1181692125 18.31180002
Al 4.9129192800000006 2.8226743725 6.141260255000001
Ga 4.864266410000001 2.7438948975 18.349126935
Ga 3.2702737500000003 -0.0335383325 6.116928725
In 3.22162088 -0.1123178075 18.324795405
Ga 1.6183190950000002 2.8168229675 6.128264870000001
In 1.5696662250000002 2.7380434925 18.33613155
Ga 0.0 0.0 0.0
Ga -0.04865287 -0.078779475 12.20786668
Ga 4.937245715 2.86206411 0.037326915
In 4.888592845000001 2.783284635 12.245193595000002
Al 3.294600185 0.005851405 0.012995385
In 3.245947315 -0.07292807 12.220862065
Ga 1.6426455300000002 2.856212705 0.02433153
In 1.5939926600000005 2.77743323 12.23219821
Ga -0.0152659488624998 1.8823062471165 3.0638547060775
In -0.0639188188624998 1.8035267721165 15.2717213860775
Ga -1.6672206038625 4.7326675471165 3.0751908510775
In -1.7158734738625 4.6538880721165 15.283057531077501
In 3.2793342361375 1.8881576521165 3.0768500910775
Al 3.2306813661375 1.8093781771165 15.2847167710775
Al 1.6273795811374998 4.738518952116499 3.0881862360775
Ga 1.5787267111374998 4.659739477116499 15.296052916077501
Al 1.6092586088625005 0.8951269828834999 9.168343503922499
Al 1.5606057388625003 0.8163475078834999 21.376210183922502
In -0.0426960461374996 3.7454882828835 9.179679648922502
In -0.0913489161374996 3.6667088078835 21.3875463289225
In 4.903858793862501 0.9009783878834998 9.181338888922498
Ga 4.855205923862501 0.8221989128834998 21.389205568922502
Ga 3.2519041388625007 3.7513396878835 9.1926750339225
In 3.203251268862501 3.6725602128835 21.4005417139225
O -0.0232401542554998 1.869394291164 5.0647240549295
O -0.0718930242554998 1.790614816164 17.2725907349295
O -1.6751948092555 4.719755591164 5.0760601999295
O -1.7238476792555 4.640976116164 17.2839268799295
O 3.2713600307445 1.875245696164 5.0777194399295
O 3.2227071607445 1.796466221164 17.2855861199295
O 1.6194053757444995 4.725606996163999 5.0890555849295
O 1.5707525057444998 4.646827521164 17.2969222649295
O 1.6172328142555004 0.908038938836 7.1674741550705
O 1.5685799442555004 0.8292594638359999 19.375340835070503
O -0.0347218407444996 3.758400238836 7.1788103000705
O -0.0833747107444996 3.679620763836 19.3866769800705
O 4.911832999255501 0.913890343836 7.1804695400705
O 4.8631801292555 0.8351108688359998 19.388336220070503
O 3.2598783442555006 3.764251643836 7.191805685070499
O 3.211225474255501 3.685472168836 19.3996723650705
O 1.6012844034695002 0.8822150269309998 11.1692128527745
O 1.5526315334695002 0.8034355519309999 23.377079532774495
O -0.0506702515304996 3.732576326931 11.1805489977745
O -0.0993231215304996 3.6537968519309993 23.388415677774496
O 4.8958845884695 0.8880664319309998 11.1822082377745
O 4.847231718469501 0.8092869569309998 23.390074917774495
O 3.243929933469501 3.738427731931 11.1935443827745
O 3.1952770634695007 3.659648256931 23.401411062774496
O -0.0072917434694998 1.895218203069 1.0629853572255
O -0.0559446134694998 1.816438728069 13.2708520372255
O -1.6592463984695 4.745579503069 1.0743215022255
O -1.7078992684695 4.666800028069 13.282188182225502
O 3.2873084415305 1.901069608069 1.0759807422255
O 3.2386555715305 1.822290133069 13.2838474222255
O 1.6353537865304997 4.751430908069 1.0873168872255
O 1.5867009165304995 4.672651433069 13.295183567225502
O -0.0121632175 -0.01969486875 3.05196667
O -0.0608160875 -0.09847434375 15.25983335
O 4.9250824975 2.84236924125 3.089293585
O 4.8764296275 2.76358976625 15.297160265
O 3.2824369675 -0.01384346375 3.064962055
O 3.2337840975 -0.09262293875 15.272828735
O 1.6304823125000003 2.83651783625 3.0762982
O 1.5818294425000003 2.75773836125 15.28416488
O -0.0364896525 -0.05908460625 9.155900010000002
O -0.0851425225 -0.13786408125 21.36376669
O 4.9007560625 2.80297950375 9.193226925
O 4.8521031925 2.72420002875 21.401093605
O 3.2581105325000004 -0.05323320125 9.168895395
O 3.2094576625 -0.13201267625 21.376762075
O 1.6061558775000002 2.79712809875 9.18023154
O 1.5575030075000005 2.71834862375 21.38809822
