80   
   
Al -0.068090145 -0.0491148775 5.933311705
In -0.204270435 -0.1473446325 17.799935115
Al 4.49296279 2.8840505325 6.00830157
Ga 4.3567825 2.7858207775 17.87492498
Al 3.05928189 0.1007913675 5.969972565
Al 2.9231016 0.0025616125 17.836595975
Al 1.3655907550000002 2.7341442875 5.97164071
In 1.2294104650000002 2.6359145325 17.83826412
Al 0.0 0.0 0.0
Al -0.13618029 -0.098229755 11.86662341
Al 4.561052935 2.93316541 0.074989865
Al 4.424872645 2.834935655 11.941613275000002
Al 3.127372035 0.149906245 0.03666086
Ga 2.991191745 0.05167649 11.90328427
Al 1.4336809 2.783259165 0.038329005
Al 1.2975006100000002 2.68502941 11.904952415
Al -0.1207064838255 1.7807993691805 2.9799869025950003
Al -0.2568867738255 1.6825696141805 14.846610312595002
Al -1.8143976188255 4.4141522891805005 2.9816550475950003
Al -1.9505779088255 4.3159225341805 14.848278457595002
Al 3.0066655511745 1.9307056141805 3.0166477625950003
In 2.8704852611745 1.8324758591805 14.883271172595002
Al 1.3129744161744998 4.564058534180501 3.0183159075950003
Al 1.1767941261745 4.465828779180501 14.884939317595002
Al 1.4182070938254998 0.9042300408195 8.924965512405
Ga 1.2820268038254998 0.8060002858194999 20.791588922404998
In -0.2754840411745 3.5375829608195 8.926633657405
In -0.4116643311745 3.4393532058195 20.793257067404998
Al 4.5455791288255005 1.0541362858195 8.961626372405
Al 4.4093988388255 0.9559065308195 20.828249782405
Al 2.8518879938255 3.6874892058195 8.963294517405
Al 2.7157077038255 3.5892594508195 20.829917927405
O -0.1430264333565 1.764699512336 4.924926479494
O -0.2792067233565 1.666469757336 16.791549889494
O -1.8367175683565 4.398052432336 4.926594624494
O -1.9728978583565 4.299822677336 16.793218034494
O 2.9843456016435 1.914605757336 4.961587339494
O 2.8481653116435 1.816376002336 16.828210749494
O 1.2906544666435 4.547958677336 4.963255484494
O 1.1544741766434998 4.449728922336001 16.829878894494
O 1.4405270433564998 0.920329897664 6.980025935506
O 1.3043467533565 0.8221001426639999 18.846649345506
O -0.2531640916435 3.5536828176640003 6.981694080506
O -0.3893443816435 3.455453062664 18.848317490506
O 4.5678990783565006 1.070236142664 7.016686795506
O 4.4317187883565 0.972006387664 18.883310205506003
O 2.8742079433565 3.703589062664 7.018354940506
O 2.7380276533565 3.605359307664 18.884978350506003
O 1.3958871442944998 0.8881301839749999 10.869905089304
O 1.2597068542944998 0.7899004289749999 22.736528499304
O -0.2978039907055 3.521483103975 10.871573234304
O -0.4339842807055 3.4232533489750003 22.738196644304
O 4.5232591792945005 1.038036428975 10.906565949304
O 4.3870788892945 0.939806673975 22.773189359304
O 2.8295680442945 3.671389348975 10.908234094304
O 2.6933877542945 3.5731595939750003 22.774857504304
O -0.0983865342945 1.796899226025 1.035047325696
O -0.2345668242945 1.698669471025 12.901670735696
O -1.7920776692945 4.430252146025 1.036715470696
O -1.9282579592945 4.332022391025 12.903338880696
O 3.0289855007055 1.946805471025 1.071708185696
O 2.8928052107055 1.848575716025 12.938331595696
O 1.3352943657055 4.580158391025001 1.073376330696
O 1.1991140757055 4.481928636025001 12.939999740696
O -0.0340450725 -0.02455743875 2.9666558525
O -0.1702253625 -0.12278719375 14.8332792625
O 4.5270078625000005 2.90860797125 3.0416457175
O 4.3908275725 2.81037821625 14.9082691275
O 3.0933269625 0.12534880625 3.0033167125
O 2.9571466725 0.02711905125 14.8699401225
O 1.3996358275 2.75870172625 3.0049848575
O 1.2634555375 2.66047197125 14.8716082675
O -0.1021352175 -0.07367231625 8.8999675575
O -0.2383155075 -0.17190207125 20.7665909675
O 4.4589177175 2.85949309375 8.974957422500001
O 4.3227374275 2.76126333875 20.8415808325
O 3.0252368175 0.07623392875 8.936628417499998
O 2.8890565275 -0.02199582625 20.8032518275
O 1.3315456825 2.70958684875 8.938296562499998
O 1.1953653925 2.61135709375 20.8049199725
