80   
   
Ga 1.65593512141 7.443758433710002 6.50537878417
Ga 6.74968499141 7.4178045937100014 6.48261979917
Al 3.51929773935 1.2882163025700002 1.82657840503
Ga 8.613047609349998 1.26226246257 1.80381942003
Ga 0.98136132253 3.0670643248700005 1.83453680331
In 6.07511119253 3.0411104848700004 1.81177781831
Al 4.19387153823 5.664910411410001 6.49742038589
Ga 9.28762140823 5.6389565714100005 6.47466140089
In 0.94089778595 5.747548249340001 -0.015217818695
Ga 6.034647655950001 5.721594409340001 -0.037976803695
Ga 4.217925944049999 2.9773783706600003 4.657654873695
Ga 9.31167581405 2.95142453066 4.6348958886950005
Al 1.6629089924900002 1.38183903906 4.672150610435001
Al 6.756658862489999 1.35588519906 4.649391625435
Al 3.53756227751 7.36097620094 9.334550744565
Al 8.631312147509998 7.33502236094 9.311791759565
Ga 0.8986833733200001 0.27576857076 9.35056844292
Al 5.992433243319999 0.24981473076 9.32780945792
Ga 4.301704601599999 8.467010891999998 4.63740438348
In 9.3954544716 8.441057051999998 4.61464539848
Al 1.735359627 4.6335359060000005 4.65623576438
Ga 6.829109497 4.607582066 4.6334767793800005
Ga 3.46502834792 4.109243556760001 9.33173706202
Al 8.55877821792 4.08328971676 9.30897807702
Ga 3.52894253906 1.3687839390900003 7.351427130105
Al 8.622692409059999 1.3428300990900004 7.328668145105
Ga 1.6537868789 7.36641074879 2.666097633095
Ga 6.7475367489 7.34045690879 2.643338648095
Ga 4.19243129716 5.727433704890001 2.657868257055
Ga 9.28618116716 5.701479864890001 2.635109272055
Ga 0.9902981208 3.0077609829900007 7.359656506145002
Al 6.0840479908 2.9818071429900006 7.336897521145
O 4.28951320566 5.842814088650001 8.332090563745
O 9.383263075659999 5.816860248650001 8.309331578745
O 0.90204549078 2.896172986670001 3.670658231055
O 5.99579536078 2.8702191466700007 3.647899246055
O 3.4417519112 1.4670024103700003 3.662022388375001
O 8.5355017812 1.4410485703700002 3.639263403375
O 1.74980678524 7.271984664949998 8.340726406425
O 6.84355665524 7.24603082495 8.317967421425001
O 2.70081323522 0.07630360133 5.878021352585
O 7.794563105219998 0.05034976133 5.855262367585
O 2.4687555600999995 8.653238282630003 1.1803958918150002
O 7.5625054301 8.627284442630001 1.157636906815
O 4.99430195172 4.426648138330001 1.177179604335
O 10.08805182172 4.40069429833 1.1544206193350002
O 0.1752668436 4.3028937456300005 5.881237640065001
O 5.269016713599999 4.27693990563 5.858478655065
O 0.11804042482 7.231356411470002 1.118728432555
O 5.211790294819999 7.205402571470001 1.095969447555
O 5.05086200986 1.49789925457 5.789860583045
O 10.14461187986 1.4719454145700002 5.767101598045
O 2.51080158872 2.857134341670001 5.798631914605
O 7.604551458719999 2.8311805016700005 5.775872929605
O 2.65810084596 5.872121324370001 1.109957100995
O 7.751850715959998 5.84616748437 1.087198115995
O 5.014644829309999 7.285702492329999 5.93813723813
O 10.10839469931 7.25974865233 5.91537825313
O 0.15567362173 1.4441613867900005 1.2888367636700002
O 5.24942349173 1.4182075467900002 1.2660777786700002
O 2.71007107203 2.9173136122900005 1.27457813247
O 7.80382094203 2.8913597722900004 1.2518191474700002
O 2.46024737901 5.812550266830001 5.95239586933
O 7.553997249009998 5.78659642683 5.929636884330001
O 1.88243298801 1.4922513541800002 8.098357751514998
O 6.97618285801 1.4662975141800003 8.075598766515
O 3.30687674127 7.24576973566 3.3987207710850003
O 8.40062661127 7.21981589566 3.375961786085
O 0.7529217918700001 5.860036871660001 3.412810041185
O 5.84667166187 5.834083031660001 3.390051056185
O 4.43638793741 2.8779842181800004 8.084268481415
O 9.530137807409998 2.8520303781800003 8.061509496415
O 4.29590192741 0.00314428391 8.40879442243
O 9.38965179741 -0.02280955609 8.386035437430001
O 0.89623983459 8.73609323209 3.72505407257
O 5.98998970459 8.710139392090001 3.702295087570001
O 3.42107822477 4.36963210939 3.722108762850001
O 8.514828094769998 4.34367826939 3.69934977785
O 1.77106353723 4.369605406610001 8.41173973215
O 6.86481340723 4.343651566610001 8.38898074715
