80   
   
Al 6.915398710000001 2.305493135 6.884834945
Al 2.302537145 6.893919785 6.90697407
Al 6.88996963 6.91465281 2.29263576
Al 6.903388065000001 6.90602817 6.893333475
Al 2.2891187100000003 6.902544425 2.306276355
Al 6.9019802750000006 2.314117775 2.28413723
Al 2.31454779 2.29338475 6.89847554
Al 2.301129355 2.3020093900000003 2.297777825
Al 6.90350089386 4.297236590120001 4.58815745246
Al 2.27722089386 8.89428788012 0.00959886246
In 6.8884490111400005 4.9315339948800005 -0.01138446246
Al 4.59534093392 6.90487277302 4.28695747038
Al 0.01991909392 2.28360471302 8.89279725038
Ga -0.00368507892 6.89159143698 4.92629295462
Al 4.296110064940001 4.59888308982 6.89683206796
In 8.895553194939998 0.01908107982 2.27399522796
Al 4.933836435060001 -5.20482e-06 6.88647841704
Al 2.30101652614 4.91080096988 4.60295384754
Al 6.900459656140001 0.33099895988 -0.01988299246
Al 2.28923153886 4.29375284512 0.00110033246
Al 4.60917648608 2.30316478698 4.90415382962
Al -0.01710351392 6.9002160769800005 0.32559523962
Al 0.00650065892 2.29222935302 4.29209953538
Al 4.9084073550600005 4.60915447018 2.29427923204
Al 0.33298551506 -0.01211358982 6.90011901204
In 4.294702274940001 0.00697269482 2.28763582296
In 2.3130271711400003 0.31026593488 4.59445531754
Al 4.59575805108 2.31178942698 0.30345611462
In 0.30755643506 4.59704608518 2.30791982704
Al 6.89149024886 8.897771625119999 4.59665598246
Al 4.60875936892 6.89624813302 8.88765518538
Al 8.89696098494 4.61099147482 6.88319147296
O 5.71326780313 3.60131726709 6.02584691474
O 3.4978940480900005 8.192797412650004 7.770755271179999
O 8.087055205310001 5.6220715425500005 1.42176144942
O 5.71307649347 5.6039076777100005 7.75941461466
O 6.03191642341 5.71380517604 3.59038732969
O 7.78101991393 3.501476472 8.18187688657
O 1.43067040567 8.090214666199998 5.61435136403
O 7.767686806989999 5.714597585760001 5.59116266971
O 3.5987463126000003 6.03467616939 5.70534829267
O 8.18864038128 7.78072555475 3.48656824175
O 5.62370554492 1.43493557745 8.083265275049998
O 5.6002013112 7.76975659841 5.70259644053
O 3.49124961687 5.60672029291 3.1652643852599995
O 5.70662337191 1.01524014735 1.42035602882
O 1.11746221469 3.58596601745 7.7693498505799985
O 3.4914409265300006 3.60412988229 1.43169668534
O 3.17260099659 3.49423238396 5.60072397031
O 1.42349750607 5.706561088000001 1.00923441343
O 7.77384701433 1.1178228938 3.57675993597
O 1.43683061301 3.49343997424 3.59994863029
O 5.6057711074 3.17336139061 3.48576300733
O 1.01587703872 1.42731200525 5.70454305825
O 3.58081187508 7.77310198255 1.10784602495
O 3.6043161088 1.43828096159 3.48851485947
O 1.08698780313 8.198368557090001 1.44728832474
O 8.097337178090001 3.61299540265 3.1479184311799995
O 3.5116333653100003 1.0008034825499998 6.02760122942
O 1.1108177834700002 0.99988889771 3.16385896466
O 1.45649458341 1.09253711604 8.196227109689998
O 3.15473991393 8.098527762 3.60331829657
O 6.03011353567 3.5104126562 0.99151452403
O 3.16542809699 1.11057880576 0.99560701971
O 8.1981894426 1.45487415939 1.08251145267
O 3.61321854128 3.15945749475 8.09240802175
O 0.99742554492 6.03198686745 3.50470668505
O 0.9979426012 3.16573781841 1.10704079053
O 8.117529616869998 1.0096690029100002 7.743822975259999
O 1.10718024191 5.595042157350001 6.04319286882
O 5.69288405469 8.20723407745 3.16351007058
O 8.093699636530001 8.20814866229 6.02725233534
O 7.748022836589999 8.11550044396 0.99488419031
O 6.04977750607 1.1095097980000002 5.58779300343
O 3.17440388433 5.6976249038 8.19959677597
O 6.03908932301 8.097458754240002 8.19550428029
O 1.0063279774 7.75316340061 8.10859984733
O 5.59129887872 6.04858006525 1.09870327825
O 8.207091875080001 3.17605069255 5.68640461495
O 8.2065748188 6.04229974159 8.08407050947
