80   
   
Ga 1.62880965824 7.355582906129999 6.441423554469999
Al 6.66142253324 7.3321959211299985 6.422038494469999
Ga 3.4753595655 1.2740735242099996 1.81016788317
Al 8.507972440499998 1.2506865392099995 1.79078282317
Al 0.96710987174 3.03124644727 1.81722933691
Al 5.99972274674 3.0078594622699995 1.79784427691
Al 4.137059352 5.59840998307 6.43436210073
Ga 9.169672227 5.57502299807 6.414977040729999
Al 0.927081949085 5.681583359924999 -0.01204046128
Al 5.959694824085 5.658196374925 -0.03142552128
Al 4.163129150914999 2.942759740075 4.612740801279999
Ga 9.195742025915001 2.919372755075 4.59335574128
Ga 1.639483897335 1.3645115730549997 4.6248299552
In 6.672096772334999 1.3411245880549998 4.6054448952
Ga 3.486153912665 7.273317136944998 9.2420914448
Ga 8.518766787665 7.249930151944999 9.222706384799999
Al 0.88206679239 0.26877272931 9.25330739496
Al 5.91467966739 0.24538574431 9.23392233496
Ga 4.24350016419 8.36902900947 4.59508156292
Ga 9.27611303919 8.34564202447 4.57569650292
Al 1.70964438389 4.578688098769999 4.61050515012
Al 6.7422572588900005 4.55530111377 4.59112009012
Al 3.41592257269 4.05911364001 9.23788380776
Ga 8.448535447689999 4.03572665501 9.21849874776
Al 3.4814825647350003 1.3512280933049998 7.27719226271
Al 8.514095439734998 1.327841108305 7.257807202709999
Ga 1.629063466805 7.280855746834998 2.6423189657299995
Ga 6.661676341805 7.257468761835 2.62293390573
Al 4.137951318485 5.661938620255 2.63504910991
Ga 9.170564193485 5.638551635255 2.6156640499099995
Al 0.972594713055 2.970145219885 7.284462118529999
In 6.005207588055001 2.946758234885 7.26507705853
O 4.230355103435 5.773475329485 8.249951379869998
O 9.262967978434999 5.750088344485 8.23056631987
O 0.8877013906250001 2.861467459975 3.63399871329
O 5.920314265625 2.838080474975 3.61461365329
O 3.397546479185 1.449934028115 3.62641625435
O 8.430159354185001 1.4265470431149998 3.60703119435
O 1.720510014875 7.185008761344998 8.257533838809998
O 6.753122889874999 7.161621776344998 8.23814877881
O 2.6647641237950004 0.073973167085 5.81815866407
O 7.697376998794998 0.050586182085 5.79877360407
O 2.434587067385 8.553849220294998 1.17322670941
O 7.467199942385 8.530462235294998 1.15384164941
O 4.9316689975450005 4.377199858835 1.16981229207
O 9.964281872545 4.353812873835 1.15042723207
O 0.167682193635 4.250622528544999 5.82157308141
O 5.200295068635 4.2272355435449995 5.80218802141
O 0.112760612525 7.147377434595 1.11015018985
O 5.145373487525 7.123990449595 1.0907651298499998
O 4.986023751295 1.4802291830249996 5.73297564667
O 10.018636626295 1.4568421980249997 5.71359058667
O 2.475859583775 2.822634716645 5.74066230665
O 7.508472458775 2.7992477316449995 5.72127724665
O 2.622924780045 5.8049719009750005 1.1024635298699998
O 7.655537655045 5.781584915975 1.08307846987
O 4.94760582193 7.201096048559998 5.882130774409999
O 9.98021869693 7.177709063559999 5.86274571441
O 0.15238305003 1.4269690798 1.27604657815
O 5.18499592503 1.4035820948 1.25666151815
O 2.67546991543 2.8842434249 1.26413977605
O 7.70808279043 2.8608564399 1.24475471605
O 2.42451895653 5.74382170346 5.89403757651
O 7.45713183153 5.72043471846 5.87465251651
O 1.854233206635 1.472203674275 8.0153351592
O 6.886846081635 1.4488166892749998 7.9959500992
O 3.261910245085 7.162010892244999 3.36823899672
O 8.294523120085001 7.138623907244999 3.34885393672
O 0.7392222283850001 5.791146419945 3.38001554752
O 5.771835103385 5.767759434945 3.36063048752
O 4.376921223335 2.843068146575 8.0035586084
O 9.409534098335 2.819681161575 7.9841735483999985
O 4.239188287369999 0.00122651682 8.323380018709999
O 9.27180116237 -0.02216046818 8.303994958709998
O 0.87936418063 8.63390507118 3.69029716929
O 5.91197705563 8.610518086179999 3.67091210929
O 3.37580795287 4.318999913239999 3.68709115403
O 8.408420827869998 4.295612928239999 3.66770609403
O 1.74274451513 4.31613167476 8.326586033969999
O 6.775357390130001 4.292744689759999 8.307200973969998
