80   
   
Ga 10.94140862237 1.2443595e-05 1.1447814267599998
Ga 10.94139760237 3.053435288595 1.1447871717599998
Ga 23.28853505237 2.6748595e-05 1.12596906676
Ga 23.28852403237 3.053449593595 1.12597481176
Ga 0.0294773076299998 -8.68595e-07 4.50412261324
Ga 0.0294662876299997 3.053421976405 4.50412835824
Ga 12.37660373763 1.3436405e-05 4.48531025324
Ga 12.376592717629999 3.053436281405 4.48531599824
Al 4.76783989737 1.5267167135950002 1.15419047926
Al 4.76782887737 4.580139558595 1.15419622426
Al 17.11496632737 1.526731018595 1.13537811926
Ga 17.11495530737 4.580153863595 1.1353838642599998
Ga 6.203035012629999 1.5267177064050002 4.49471930574
Ga 6.20302399263 4.580140551405 4.49472505074
Ga 18.55016144263 1.526732011405 4.47590694574
Ga 18.55015042263 4.580154856405 4.47591269074
Ga 9.43982683463 1.526721580225 3.87223512814
Ga 9.439815814629998 4.580144425225 3.87224087314
Al 21.78695326463 1.526735885225 3.85342276814
Ga 21.78694224463 4.580158730225 3.85342851314
Ga 1.53104807537 1.5267128397749998 1.77667465686
Ga 1.53103705537 4.5801356847750005 1.77668040186
Ga 13.87817450537 1.526727144775 1.75786229686
Al 13.87816348537 4.580149989775 1.75786804186
Ga 3.2662691296299995 3.005225e-06 3.88163843564
Ga 3.26625810963 3.053425850225 3.88164418064
Al 15.613395559629996 1.7310225e-05 3.86282607564
Ga 15.61338453963 3.053440155225 3.86283182064
Ga 7.70461680037 8.569775e-06 1.76726560436
Al 7.704605780369999 3.0534314147750004 1.76727134936
Ga 20.05174323037 2.2874775e-05 1.7484532443599998
Ga 20.05173221037 3.053445719775 1.74845898936
O 9.60965645911 1.0637225e-05 2.46123424508
O 9.609645439109999 3.053433482225 2.46123999008
O 21.95678288911 2.4942225e-05 2.44242188508
O 21.95677186911 3.053447787225 2.44242763008
O 1.3612294708899997 9.37775e-07 3.18766979492
O 1.3612184508899996 3.053423782775 3.1876755399199994
O 13.70835590089 1.5242775e-05 3.16885743492
O 13.70834488089 3.053438087775 3.16886317992
O 3.43608773411 1.526714907225 2.47064329758
O 3.4360767141100004 4.580137752225 2.47064904258
O 15.783214164109998 1.526729212225 2.45183093758
O 15.783203144109997 4.580152057225 2.45183668258
O 7.53478717589 1.5267195127750002 3.17826648742
O 7.534776155889999 4.580142357775 3.1782722324199995
O 19.88191360589 1.526733817775 3.15945412742
O 19.88190258589 4.580156662775 3.15945987242
O 9.084996524049998 9.514975e-06 5.0285592754
O 9.084985504049996 3.0534323599750004 5.0285650204
O 21.43212295405 2.3819975e-05 5.0097469154
O 21.43211193405 3.053446664975 5.0097526604
O 1.88588940595 2.060025e-06 0.6203447646
O 1.88587838595 3.053424905025 0.6203505095999999
O 14.23301583595 1.6365025e-05 0.6015324046
O 14.233004815949998 3.053439210025 0.6015381496
O 2.91142779905 1.526713784975 5.0379683279
O 2.9114167790500005 4.580136629975 5.0379740729
O 15.258554229049997 1.526728089975 5.0191559679
O 15.25854320905 4.580150934975 5.0191617129
O 8.05944711095 1.526720635025 0.6109414571
O 8.059436090949998 4.580143480025 0.6109472021
O 20.406573540949996 1.526734940025 0.5921290971
O 20.40656252095 4.580157785025 0.5921348421
O -0.97316369578 1.52670945133 4.21104090826
O -0.97317471578 4.58013229633 4.21104665326
O 11.37396273422 1.52672375633 4.19222854826
O 11.373951714219999 4.58014660133 4.19223429326
O 11.94403860578 1.52672496867 1.43786887674
O 11.94402758578 4.58014781367 1.43787462174
O 24.29116503578 1.5267392736699998 1.41905651674
O 24.29115401578 4.58016211867 1.41906226174
O 5.20040502922 5.18133e-06 4.20163185576
O 5.20039400922 3.05342802633 4.20163760076
O 17.54753145922 1.948633e-05 4.18281949576
O 17.54752043922 3.05344233133 4.18282524076
O 5.77048090078 6.39367e-06 1.44727218424
O 5.77046988078 3.05342923867 1.44727792924
O 18.11760733078 2.069867e-05 1.42845982424
O 18.11759631078 3.0534435436700003 1.42846556924
