80   
   
In 1.67077786802 7.57685469223 6.60690607766
Al 6.8666943830200005 7.56199430223 6.58478494266
In 3.58651583888 1.31898546027 1.85618617996
In 8.78243235388 1.30412507027 1.83406504496
Ga 0.99365210016 3.12208842559 1.8626569984
In 6.18956861516 3.10722803559 1.8405358634
In 4.263641606740001 5.7737517269100005 6.600435259219999
Al 9.45955812174 5.7588913369100005 6.57831412422
Ga 0.946664072805 5.846610697470001 -0.018910449905
In 6.142580587805001 5.83175030747 -0.041031584905
Al 4.294694757195001 3.0398724475300005 4.732420649905
Al 9.490611272194998 3.025012057530001 4.710299514905
Al 1.6920959479350002 1.4116403170900005 4.747661978925
Al 6.888012462935 1.3967799270900003 4.725540843925
Al 3.589706732065 7.498591577910002 9.482553951075
In 8.785623247065002 7.483731187910002 9.460432816075
In 0.91407399237 0.28791253053 9.50279102769
In 6.10999050737 0.27305214053 9.48066989269
Al 4.36764779993 8.622271866970001 4.70839149085
In 9.56356431493 8.60741147697 4.68627035585
Al 1.75859257083 4.718335631570001 4.72944953155
Ga 6.954509085830001 4.703475241570001 4.70732839655
Al 3.5231292214700005 4.19184876593 9.48173298699
Ga 8.719045736470001 4.17698837593 9.45961185199
Al 3.5949917239550007 1.4041575572200002 7.470927151825
In 8.790908238954998 1.38929716722 7.448806016825
Ga 1.6695818759450003 7.49595737028 2.705172137195
Al 6.8654983909450005 7.48109698028 2.683051002195
Al 4.262849140905 5.83508591152 2.698337774275
Al 9.458765655905 5.82022552152 2.676216639275
Al 1.001724458995 3.0650290159800004 7.477761514745
Al 6.197640973995 3.0501686259800005 7.455640379745
O 4.360403589895 5.955943238480001 8.464879092405
O 9.556320104895 5.941082848480001 8.442757957405
O 0.9127441062050002 2.94920642402 3.728761811375
O 6.108660621205001 2.9343460340200003 3.706640676375
O 3.5066166605250007 1.5016822251000002 3.721382131735
O 8.702533175525001 1.4868218351 3.699260996735
O 1.766531035575 7.4034674374 8.472258772045
O 6.962447550575 7.3886070474 8.450137637044998
O 2.7535223355350005 0.08714148144 5.974189814525
O 7.949438850535 0.07228109144 5.952068679525
O 2.498271007765 8.805468841060001 1.194630463815
O 7.694187522765001 8.79060845106 1.172509328815
O 5.084073037285 4.513314510940001 1.194521673775
O 10.279989552285002 4.498454120940001 1.172400538775
O 0.167720306015 4.37929581156 5.974298604565
O 5.3636368210150005 4.36443542156 5.952177469565
O 0.103689716105 7.35424168822 1.132398870995
O 5.299606231105 7.33938129822 1.110277735995
O 5.147456525595 1.53798865428 5.884154115665
O 10.343373040595 1.52312826428 5.862032980665
O 2.553382208155 2.9143970999200004 5.891715567545
O 7.749298723155001 2.8995367099200005 5.869594432545
O 2.6977640335450004 5.977833242580001 1.124837419115
O 7.893680548545 5.962972852580001 1.102716284115
O 5.09729305453 7.42341415202 6.03118403497
O 10.29320956953 7.40855376202 6.00906289997
O 0.15522827807 1.4696236479800002 1.30893694651
O 5.3511447930700005 1.4547632579800005 1.28681581151
O 2.7574740018700004 2.9734032101800008 1.29401371891
O 7.95339051687 2.958542820180001 1.2718925839100002
O 2.4950473307300003 5.919634589820001 6.0461072625700005
O 7.69096384573 5.90477419982 6.02398612757
O 1.9150377023150005 1.5264115739100004 8.229618772345
O 7.110954217315 1.5115511839100002 8.207497637345
O 3.355926025885001 7.37745565609 3.450120022015
O 8.551842540884998 7.36259526609 3.427998887015
O 0.7539325059850001 5.9625707854900005 3.464816034315
O 5.949849020985001 5.947710395490001 3.442694899315
O 4.517031222215 2.9412964445100003 8.214922760045
O 9.712947737215 2.9264360545100003 8.192801625045
O 4.38021089193 0.01784005812 8.54651916661
O 9.576127406930002 0.00297966812 8.524398031609998
O 0.8935030180700002 8.887642086880001 3.78035561739
O 6.08941953307 8.872781696880002 3.75823448239
O 3.4789015213500005 4.453256250200001 3.78061037183
O 8.674818036349999 4.438395860200001 3.75848923683
O 1.79481238865 4.452225894800001 8.54626441217
O 6.990728903650001 4.437365504800001 8.524143277169998
