20   
   
In 10.66259029559 -1.6757e-06 1.22043621402
Al -0.1569171455900001 -3.0643e-06 4.71231580598
Al 4.61931389059 1.5502938343 1.21745114402
Al 5.88635090941 1.5502914457 4.71532796598
In 9.0803019972 1.5502916033599998 4.070811001370001
Al 1.4253628028000005 1.55029367664 1.86196810863
In 3.0370339422000003 -2.90664e-06 4.06779884137
Al 7.4686392078 -1.83336e-06 1.86495317863
O 8.6852891582 -4.1636e-06 5.279819450150001
O 1.8203839918 -5.764e-07 0.65293256985
O 2.642012753200001 1.5502913464 5.27683438015
O 7.863652046800001 1.5502939336 0.6559447298500001
O 9.30473150595 -2.46138e-06 2.59495155244
O 1.2009416440500005 -2.27862e-06 3.33780046756
O 3.26145510095 1.55029304862 2.59196648244
O 7.24420969905 1.55029223138 3.34081262756
O -1.12624538049 1.5502922271799997 4.40361634289
O 11.63191018049 1.55029305282 1.52916276711
O 4.917031024510001 -3.28282e-06 4.40660141289
O 5.588642125490001 -1.45718e-06 1.5261506071100002
