80   
   
In 1.7580934357700002 7.915117977999999 6.85545555644
In 7.19488711577 7.900012602999999 6.82406744144
In 3.75564826287 1.3792845955199995 1.92224397986
In 9.19244194287 1.3641792205199998 1.89085586486
Ga 1.04240884445 3.2601098844999994 1.9303328727
In 6.479202524449999 3.2450045094999997 1.8989447577000005
In 4.471332854190001 6.03429268902 6.8473666636
In 9.90812653419 6.01918731402 6.8159785486
In 0.98998598654 6.099342532794999 -0.030391731725
In 6.426779666540001 6.084237157794999 -0.061779846725
In 4.50109576346 3.179246622205 4.9091937617250005
Al 9.93788944346 3.164141247205 4.877805646725
Ga 1.7780010741 1.4804519895449997 4.931815295945
In 7.214794754099999 1.4653466145449998 4.900427180945
In 3.7705932359000007 7.838272745455 9.842665684055
In 9.2073869159 7.823167370454998 9.811277569055001
Ga 0.97160233938 0.31576654362 9.879380587830001
In 6.4083960193800005 0.30066116862 9.84799247283
In 4.5768769455000005 9.002877920219998 4.875309034270001
Ga 10.0136706255 8.987772545219999 4.84392091927
In 1.8472461179 4.93003484212 4.907568796970001
Ga 7.2840397979 4.91492946712 4.87618068197
Ga 3.70123316698 4.38860962172 9.84712082513
Ga 9.13802684698 4.37350424672 9.81573271013
Ga 3.77347454655 1.4771989177649998 7.760487530065002
Ga 9.21026822655 1.462093542765 7.729099415065002
In 1.75061941289 7.8244280601549985 2.798434217235
Al 7.18741309289 7.809322685154998 2.767046102235
Ga 4.46426733995 6.091980799015 2.789742935115
In 9.90106101995 6.076875424015 2.758354820115
Ga 1.05982661949 3.2096461789050004 7.769178812185001
In 6.49662029949 3.1945408039050003 7.737790697185002
O 4.575541444310001 6.227375006125 8.785633153245001
O 10.01233512431 6.212269631125 8.754245038245001
O 0.96074517785 3.082760714755 3.871172531455001
O 6.39753885785 3.067655339755 3.839784416455001
O 3.67500586787 1.5728804953749995 3.861577665415001
O 9.11179954787 1.557775120375 3.830189550415001
O 1.8612807542900005 7.737255225504998 8.795228019285
O 7.29807443429 7.722149850504999 8.763839904285001
O 2.89072186835 0.100777598605 6.207564455205
O 8.327515548349998 0.085672223605 6.176176340205
O 2.61519812213 9.188166536034998 1.2243227438950002
O 8.051991802129999 9.173061161034996 1.192934628895
O 5.32128863935 4.710725759855 1.2267756634550002
O 10.75808231935 4.695620384854999 1.195387548455
O 0.18463135113 4.578218374785 6.205111535645001
O 5.62142503113 4.563112999785 6.1737234206450005
O 0.10962571529 7.673919138534998 1.165770335315
O 5.54641939529 7.658813763534998 1.134382220315
O 5.39537407423 1.614382826825 6.107786000585
O 10.83216775423 1.599277451825 6.076397885585
O 2.6809091298900003 3.050074032285 6.1176820612650005
O 8.11770280989 3.034968657285 6.086293946265
O 2.82409065963 6.238227933075 1.155874274635
O 8.260884339629998 6.223122558075 1.124486159635
O 5.34257551489 7.7544024034399985 6.2514967317700005
O 10.77936919489 7.7392970284399984 6.22010861677
O 0.16437970167 1.53526417164 1.3585126884300005
O 5.601173381670001 1.52015879664 1.32712457343
O 2.8871169459700003 3.10422802994 1.3364182448300002
O 8.323910625969999 3.08912265494 1.3050301298300002
O 2.61983827059 6.18543854514 6.273591175370001
O 8.05663195059 6.17033317014 6.2422030603700005
O 2.01682879974 1.605820917705 8.551926475085
O 7.45362247974 1.590715542705 8.520538360085
O 3.5163521441800003 7.702147481854999 3.5705125463150003
O 8.95314582418 7.687042106854999 3.5391244313150003
O 0.79387021778 6.225919890955 3.592230496615
O 6.23066389778 6.210814515955 3.560842381615
O 4.73931072614 3.082048508605 8.530208524785001
O 10.176104406140002 3.066943133605 8.498820409785
O 4.596946352270001 0.03276755524 8.879832941530001
O 10.033740032270002 0.01766218024 8.84844482653
O 0.94014544573 9.27793006376 3.9155122484700007
O 6.37693912573 9.262824688759999 3.88412413347
O 3.64582745431 4.65211125974 3.91856755731
O 9.08262113431 4.63700588474 3.88717944231
O 1.8912643436900003 4.65858635926 8.87677763269
O 7.32805802369 4.64348098426 8.84538951769
