80   
   
Ga 10.967745865525 1.0205905e-05 1.19779356874
Ga 10.967739160525 3.180732635905 1.1977830237399998
Ga 23.383152490525 2.3000905e-05 1.15489272874
Ga 23.383145785525 3.180745430905 1.1548821837399998
Ga -0.102869760525 -4.360905e-06 4.79242965126
Ga -0.1028764655250001 3.180718069095 4.79241910626
Ga 12.312536864474998 8.434095e-06 4.74952881126
Ga 12.312530159474996 3.180730864095 4.74951826626
Ga 4.760039200524999 1.590365023405 1.2192387162399998
Ga 4.760032495525 4.771087453405 1.21922817124
Ga 17.175445825525 1.590377818405 1.17633787624
Ga 17.175439120525 4.771100248405 1.1763273312399998
Ga 6.104830199474999 1.590363251595 4.77097395876
Ga 6.104823494474999 4.771085681595 4.77096341376
Ga 18.520236824475003 1.590376046595 4.72807311876
Ga 18.520230119475002 4.771098476595 4.72806257376
In 9.377689682405 1.590367207895 4.10263822622
Ga 9.377682977405 4.771089637895 4.10262768122
In 21.793096307404998 1.590380002895 4.05973738622
Ga 21.793089602404997 4.771102432895 4.05972684122
In 1.487179717595 1.590361067105 1.88757444878
Ga 1.487173012595 4.771083497105 1.88756390378
In 13.902586342595 1.590373862105 1.84467360878
Ga 13.902579637594998 4.771096292105 1.84466306378
In 3.1699897224050004 -4.04605e-07 4.12409391872
In 3.1699830174050008 3.180722025395 4.12408337372
In 15.585396347404998 1.2390395e-05 4.08119307872
In 15.585389642404998 3.180734820395 4.08118253372
In 7.694886382594999 6.249605e-06 1.86612930128
In 7.694879677594998 3.180728679605 1.86611875628
In 20.110293007595 1.9044605e-05 1.82322846128
Ga 20.110286302595 3.180741474605 1.82321791628
O 9.589959441635 7.544315e-06 2.60099621954
O 9.589952736634999 3.180729974315 2.60098567454
O 22.005366066635002 2.0339315e-05 2.55809537954
O 22.005359361635 3.180742769315 2.55808483454
O 1.2749166633649998 -1.699315e-06 3.38922700046
O 1.2749099583649997 3.180720730685 3.3892164554599997
O 13.690323288364999 1.1095685e-05 3.3463261604599994
O 13.690316583364998 3.180733525685 3.34631561546
O 3.3822527766349992 1.590362361815 2.62244136704
O 3.382246071635 4.771084791815 2.62243082204
O 15.797659401635002 1.590375156815 2.57954052704
O 15.797652696635001 4.771097586815 2.57952998204
O 7.482616623364998 1.590365913185 3.36777130796
O 7.482609918364998 4.771088343185 3.3677607629599997
O 19.898023248365 1.5903787081849998 3.3248704679599994
O 19.898016543365 4.771101138185 3.3248599229599995
O 8.986892369074999 4.498325e-06 5.333658212
O 8.986885664074999 3.1807269283249995 5.333647666999999
O 21.402298994075 1.7293325e-05 5.290757372
O 21.402292289075003 3.180739723325 5.290746827
O 1.877983735925 1.346675e-06 0.656565008
O 1.877977030925 3.180723776675 0.656554463
O 14.293390360925 1.4141675e-05 0.6136641679999999
O 14.293383655925 3.180736571675 0.6136536229999999
O 2.779185704075 1.590359315825 5.355103359499999
O 2.779178999075 4.771081745825 5.3550928145
O 15.194592329075002 1.590372110825 5.3122025195
O 15.194585624075001 4.771094540825 5.3121919745
O 8.085683695925 1.590368959175 0.6351093154999999
O 8.085676990925 4.771091389175 0.6350987705
O 20.501090320924998 1.590381754175 0.5922084755
O 20.501083615924998 4.771104184175 0.5921979304999999
O -1.10238590236 1.59035610233 4.48243430072
O -1.10239260736 4.77107853233 4.482423755719999
O 11.31302072264 1.59036889733 4.43953346072
O 11.313014017639999 4.77109132733 4.43952291572
O 11.967255302359998 1.59037217267 1.50777837428
O 11.967248597359998 4.77109460267 1.50776782928
O 24.38266192736 1.59038496767 1.46487753428
O 24.38265522236 4.77110739767 1.46486698928
O 5.10532076264 1.28483e-06 4.46098915322
O 5.10531405764 3.18072371483 4.46097860822
O 17.520727387639997 1.407983e-05 4.418088313219999
O 17.520720682639997 3.18073650983 4.41807776822
O 5.75955534236 4.56017e-06 1.52923406678
O 5.75954863736 3.18072699017 1.52922352178
O 18.17496196736 1.735517e-05 1.48633322678
O 18.17495526236 3.18073978517 1.48632268178
