80   
   
Al 10.826526567185 4.55027e-06 1.21093566011
Ga 10.826519302185002 3.14947702527 1.21094190011
Ga 23.091676332185 1.083027e-05 1.18970100011
Ga 23.091669067185 3.14948330527 1.18970724011
Al -0.134521042185 -3.92027e-06 4.76899048989
Ga -0.134528307185 3.1494685547300003 4.7689967298900005
In 12.130628722815 2.35973e-06 4.74775582989
In 12.130621457815002 3.14947483473 4.74776206989
Ga 4.693948052184999 1.57473764777 1.22155611011
Ga 4.693940787185 4.724210122770001 1.22156235011
Al 16.959097817184997 1.5747439277700002 1.20032145011
Ga 16.959090552185 4.724216402770001 1.20032769011
Ga 5.998050207815 1.57473545723 4.75837627989
Ga 5.998042942815 4.72420793223 4.7583825198900005
Ga 18.263199972815002 1.57474173723 4.73714161989
In 18.263192707815 4.72421421223 4.73714785989
In 9.235810371224998 1.57473764308 4.0989410866
Al 9.235803106225 4.72421011808 4.0989473266
Al 21.500960136224997 1.57474392308 4.077706426600001
In 21.500952871225 4.72421639808 4.0777126666
Al 1.4561878887750002 1.57473546192 1.8809913034
In 1.456180623775 4.72420793692 1.8809975434
Al 13.721337653775 1.57474174192 1.8597566434
Al 13.721330388775 4.72421421692 1.8597628834
In 3.103239121225001 -1.73442e-06 4.1095552966
Al 3.1032318562250008 3.14947074058 4.1095615366
In 15.368388886224999 4.54558e-06 4.088320636600001
In 15.368381621224998 3.14947702058 4.0883268766
Ga 7.588766403775002 2.36442e-06 1.8703708534
In 7.588759138775002 3.1494748394200003 1.8703770934
In 19.853916168775 8.64442e-06 1.8491361934
In 19.853908903775 3.1494811194200003 1.8491424334
O 9.455814822775 2.72451e-06 2.60494621015
O 9.455807557775 3.14947519951 2.60495245015
O 21.720964587775 9.00451e-06 2.58371155015
O 21.720957322775 3.14948147951 2.58371779015
O 1.2361907022250005 -2.09451e-06 3.37497993985
O 1.2361834372250005 3.1494703804900004 3.37498617985
O 13.501340467225 4.18549e-06 3.35374527985
O 13.501333202225 3.1494766604900004 3.35375151985
O 3.323236307775 1.57473582201 2.61556666015
O 3.3232290427750004 4.724208297010001 2.61557290015
O 15.588386072775002 1.57474210201 2.59433200015
O 15.588378807775001 4.724214577010001 2.59433824015
O 7.368761952225 1.57473728299 3.36436572985
O 7.368754687225001 4.72420975799 3.36437196985
O 19.633911717224997 1.57474356299 3.34313106985
O 19.633904452225 4.72421603799 3.3431373098499995
O 8.841301680174999 2.153e-07 5.3233021798
O 8.841294415174998 3.1494726903 5.3233084198
O 21.106451445175 6.4953e-06 5.3020675198000005
O 21.106444180175 3.1494789703 5.3020737598
O 1.850703844825 4.147e-07 0.6566239702
O 1.8506965798250004 3.1494728897 0.6566302102
O 14.115853609825 6.6947e-06 0.6353893102
O 14.115846344825 3.1494791697 0.6353955502
O 2.7087231651749994 1.5747333128 5.3339226298
O 2.708715900175 4.7242057878 5.3339288698
O 14.973872930175002 1.5747395928 5.3126879698
O 14.973865665175001 4.7242120678 5.3126942098
O 7.983275094825002 1.5747397922000002 0.6460097602
O 7.983267829825001 4.7242122672 0.6460160002
O 20.248424859824997 1.5747460722000002 0.6247751002
O 20.248417594825 4.7242185472000005 0.6247813402
O -1.11978920376 1.57473206467 4.45878066319
O -1.11979646876 4.7242045396700005 4.45878690319
O 11.14536056124 1.57473834467 4.43754600319
O 11.14535329624 4.724210819670001 4.43755224319
O 11.81178746376 1.57474104033 1.52115172681
O 11.81178019876 4.72421351533 1.5211579668100002
O 24.07693722876 1.57474732033 1.49991706681
O 24.07692996376 4.72421979533 1.49992330681
O 5.01278931124 -1.03283e-06 4.44816021319
O 5.01278204624 3.14947144217 4.44816645319
O 17.277939076240003 5.24717e-06 4.42692555319
O 17.277931811240002 3.14947772217 4.42693179319
O 5.67921621376 1.66283e-06 1.53176593681
O 5.67920894876 3.1494741378300004 1.53177217681
O 17.94436597876 7.94283e-06 1.51053127681
O 17.94435871376 3.1494804178300004 1.51053751681
