80   
   
Al 10.71438981345 5.8191e-07 1.212476249535
Al 10.714381428450002 3.10517740191 1.2124979245349998
Al 22.85377006345 2.12191e-06 1.211661064535
Al 22.85376167845 3.10517894191 1.2116827395349998
Ga -0.13748192345 -3.03191e-06 4.704841505465
In -0.1374903084500001 3.10517378809 4.704863180465
Al 12.00189832655 -1.49191e-06 4.704026320465
Al 12.00188994155 3.10517532809 4.704047995465
Ga 4.64469549595 1.55258822191 1.2128946795349995
Al 4.64468711095 4.65776504191 1.212916354535
In 16.78407574595 1.55258976191 1.2120794945349995
Al 16.78406736095 4.65776658191 1.212101169535
Al 5.93220400905 1.55258614809 4.704444750465
Al 5.93219562405 4.657762968089999 4.704466425465
Al 18.07158425905 1.55258768809 4.703629565465
Al 18.07157587405 4.65776450809 4.703651240465
In 9.137358558790002 1.552586968 4.059164463755
In 9.13735017379 4.657763788 4.059186138755
Ga 21.27673880879 1.552588508 4.058349278755
In 21.27673042379 4.657765328 4.058370953755
Al 1.4395409462100002 1.552587402 1.858174966245
Al 1.4395325612100005 4.657764222 1.858196641245
Al 13.57892119621 1.552588942 1.857359781245
In 13.57891281121 4.657765762 1.857381456245
In 3.0676726262900003 -2.212e-06 4.059561218755
In 3.06766424129 3.105174608 4.059582893755
Al 15.20705287629 -6.72e-07 4.058746033755
Al 15.207044491289997 3.105176148 4.058767708755
In 7.50923526371 -2.38e-07 1.857756536245
Ga 7.50922687871 3.105176582 1.857778211245
In 19.64861551371 1.302e-06 1.856941351245
In 19.64860712871 3.105178122 1.856963026245
O 9.35646704543 -4.7005e-07 2.585549936785
O 9.35645866043 3.10517634995 2.585571611785
O 21.49584729543 1.06995e-06 2.584734751785
O 21.49583891043 3.10517788995 2.584756426785
O 1.22044084457 -1.97995e-06 3.3317678182149995
O 1.2204324595699998 3.10517484005 3.331789493215
O 13.35982109457 -4.3995e-07 3.3309526332149995
O 13.35981270957 3.10517638005 3.330974308215
O 3.2867727279300003 1.55258716995 2.585968366785
O 3.28676434293 4.65776398995 2.585990041785
O 15.426152977929997 1.5525887099500002 2.585153181785
O 15.426144592929997 4.65776552995 2.585174856785
O 7.29012677707 1.55258720005 3.3313710632149998
O 7.290118392070002 4.657764020049999 3.3313927382149995
O 19.42950702707 1.55258874005 3.3305558782149998
O 19.42949864207 4.65776556005 3.3305775532149995
O 8.745782108349998 -2.2652e-06 5.266457637125
O 8.74577372335 3.1051745548 5.266479312125
O 20.88516235835 -7.252e-07 5.265642452125
O 20.88515397335 3.1051760948 5.265664127125
O 1.83112578165 -1.848e-07 0.650860117875
O 1.83111739665 3.1051766352000003 0.6508817928749999
O 13.97050603165 1.3552e-06 0.650044932875
O 13.97049764665 3.1051781752000003 0.6500666078749999
O 2.676087790850001 1.5525853748 5.266876067125
O 2.676079405850001 4.6577621948 5.266897742125
O 14.81546804085 1.5525869148 5.266060882125
O 14.815459655849997 4.6577637348 5.266082557125
O 7.900811714149999 1.5525889952 0.650463362875
O 7.90080332915 4.6577658152 0.650485037875
O 20.04019196415 1.5525905352000002 0.649648177875
O 20.04018357915 4.6577673552 0.649669852875
O -1.11236363498 1.5525854515900002 4.39718035118
O -1.11237201998 4.657762271589999 4.39720202618
O 11.02701661502 1.55258699159 4.39636516618
O 11.027008230020002 4.65776381159 4.39638684118
O 11.68926313998 1.55258891841 1.52015907882
O 11.689254754980002 4.65776573841 1.5201807538199998
O 23.82864338998 1.55259045841 1.51934389382
O 23.82863500498 4.657767278410001 1.5193655688199998
O 4.95733068252 -2.18841e-06 4.39676192118
O 4.95732229752 3.10517463159 4.39678359618
O 17.09671093252 -6.4841e-07 4.39594673618
O 17.09670254752 3.10517617159 4.395968411179999
O 5.61957720748 -2.6159e-07 1.52055583382
O 5.61956882248 3.10517655841 1.52057750882
O 17.75895745748 1.27841e-06 1.5197406488199998
O 17.75894907248 3.10517809841 1.51976232382
