40   
   
Al 0.9251462273 5.65479577768 -0.01101481985
Al 4.1422312677 2.9261246373200005 4.59270715985
Al 1.63144087066 1.35654795796 4.60452261517
Al 3.4359366243400005 7.2243724570399985 -0.02283027517
Ga 3.4634908852400006 1.34188905927 7.24507962423
Ga 1.6242562683 7.245851663909998 2.63183734725
Ga 4.11862317564 5.63306184347 2.62426152953
Ga 0.9691239779 2.9546788797100003 7.25265544195
Ga 1.62414538864 7.31960927041 6.41410723018
Ga 3.4572140671 1.26599268017 1.8022863377
Ga 0.96355736472 3.0163983492499997 1.80967881974
Ga 4.11780209102 5.56920360133 6.40671474814
Al 0.8776646985300001 0.26553002925 9.21229955166
Al 4.22512903205 8.32724869161 4.5760725483
Al 1.7029753556500002 4.555818434010001 4.5908213745
Al 3.39981837493 4.03696028685 9.19755072546
O 4.210734523739999 5.74311010813 8.21428102123
O 0.8845359183200001 2.84714961389 3.61836351449
O 3.3799681331 1.44078356641 3.61051269325
O 1.71530230896 7.14947615561 8.22213184247
O 2.6504751373800004 0.07122687789 5.79231120651
O 2.4260580578 8.51275911117 1.16946467865
O 4.90728617338 4.3540760908900005 1.16528057101
O 0.1692470218 4.229909898169999 5.79649531415
O 4.92480385109 7.16412501404 5.85719452928
O 0.15236811387 1.4200748522800002 1.27063369624
O 2.66253708157 2.8692376640800004 1.25897865964
O 2.41463488339 5.71496220224 5.86884956588
O 0.11608136248 7.114066739649999 1.10647335661
O 4.95988403734 1.4697291362899998 5.70770044823
O 2.46409672008 2.80728725945 5.71564293731
O 2.61186867974 5.776508616490001 1.09853086753
O 1.84517168644 1.4630682356600002 7.98000613313
O 3.2481824462800004 7.12654985458 3.35448138151
O 0.73845735668 5.7633969481800005 3.36602183331
O 4.35489677604 2.82622114206 7.968465681329999
O 4.21636859969 -0.00245047622 8.28637529668
O 0.87939866331 8.592876547220001 3.67542105932
O 3.3599165739300005 4.2965776783 3.67142028736
O 1.73585068907 4.2938483927 8.29037606864
