80   
   
In 10.870512408195 6.80718e-06 1.19847047399
Ga 10.870504678195 3.1408774421800003 1.19847346899
Al 23.176386363195 1.552718e-05 1.17351348399
Al 23.176378633195 3.1408861621800006 1.17351647899
Ga -0.1037946331950002 -3.54718e-06 4.73343291601
Ga -0.1038023631950003 3.14086708782 4.73343591101
Ga 12.202079321804998 5.17282e-06 4.70847592601
Al 12.202071591804998 3.14087580782 4.70847892101
Al 4.717571565695 1.57043776468 1.21095046649
Ga 4.717563835695 4.71130839968 1.21095346149
Ga 17.023445520695 1.57044648468 1.18599347649
Ga 17.023437790695 4.71131711968 1.18599647149
Al 6.049138479305 1.57043613032 4.7209559185100005
In 6.049130749304999 4.71130676532 4.7209589135100005
In 18.355012434305 1.57044485032 4.695998928510001
Ga 18.355004704305 4.71131548532 4.696001923510001
In 9.293374991675002 1.57043890546 4.06541888959
In 9.293367261675002 4.71130954046 4.06542188459
In 21.599248946675 1.5704476254600002 4.04046189959
Ga 21.599241216675 4.71131826046 4.04046489459
Ga 1.4733350533249998 1.57043498954 1.86648749541
Ga 1.473327323325 4.7113056245400005 1.86649049041
Ga 13.779209008325 1.57044370954 1.84153050541
In 13.779201278325 4.711314344540001 1.84153350041
Al 3.1404418791749995 -7.7204e-07 4.07789588709
Ga 3.1404341491749994 3.1408698629600003 4.07789888209
In 15.446315834174996 7.94796e-06 4.052938897090001
In 15.446308104174996 3.14087858296 4.052941892090001
Al 7.626275895824999 4.03204e-06 1.85400750291
Ga 7.626268165824999 3.14087466704 1.85401049791
Ga 19.932149850825 1.275204e-05 1.82905051291
In 19.932142120825 3.14088338704 1.82905350791
O 9.504346510125 4.82542e-06 2.58250855533
O 9.504338780125002 3.14087546042 2.58251155033
O 21.810220465124996 1.354542e-05 2.5575515653300003
O 21.810212735124995 3.1408841804200005 2.5575545603300003
O 1.262371264875 -1.56542e-06 3.34939483467
O 1.262363534875 3.1408690695800003 3.34939782967
O 13.568245219875 7.15458e-06 3.32443784467
O 13.568237489875 3.14087778958 3.32444083967
O 3.3514056676249995 1.57043578292 2.59498854783
O 3.3513979376249994 4.71130641792 2.59499154283
O 15.657279622624998 1.57044450292 2.57003155783
O 15.657271892624998 4.71131513792 2.57003455283
O 7.415304377374999 1.57043811208 3.33691783717
O 7.415296647374999 4.71130874708 3.33692083217
O 19.721178332375 1.57044683208 3.31196084717
O 19.721170602375 4.71131746708 3.31196384217
O 8.905555752224998 2.4218e-06 5.2807666515500005
O 8.905548022224998 3.1408730568 5.2807696465500005
O 21.211429707224998 1.11418e-05 5.25580966155
O 21.211421977224997 3.1408817768 5.25581265655
O 1.861162022775 8.382e-07 0.65113673845
O 1.861154292775 3.1408714732000003 0.65113973345
O 14.167035977775 9.5582e-06 0.62617974845
O 14.167028247775 3.1408801932 0.62618274345
O 2.752614909725 1.5704333793 5.29324664405
O 2.752607179725 4.7113040143000005 5.29324963905
O 15.058488864724994 1.5704420993 5.26828965405
O 15.058481134724996 4.711312734300001 5.26829264905
O 8.014095135274998 1.5704405157 0.63865974095
O 8.014087405274998 4.7113111507 0.63866273595
O 20.319969090275002 1.5704492357000002 0.61370275095
O 20.319961360275002 4.7113198707 0.61370574595
O -1.09437341092 1.5704312956000002 4.42584893188
O -1.09438114092 4.7113019306 4.42585192688
O 11.21150054408 1.5704400156000002 4.40089194188
O 11.21149281408 4.7113106506 4.40089493688
O 11.86108345592 1.5704425994000002 1.5060574531200002
O 11.86107572592 4.7113132344 1.5060604481200002
O 24.16695741092 1.5704513194 1.48110046312
O 24.16694968092 4.711321954400001 1.48110345812
O 5.058567431579999 3.381e-07 4.41336893938
O 5.058559701579999 3.1408709731 4.41337193438
O 17.364441386579998 9.0581e-06 4.38841194938
O 17.364433656579997 3.1408796931000005 4.38841494438
O 5.70815034342 2.9219e-06 1.51853445062
O 5.70814261342 3.1408735569 1.51853744562
O 18.014024298419997 1.16419e-05 1.49357746062
O 18.014016568419997 3.1408822769 1.49358045562
