80   
   
In 0.00021787 -0.04339084 6.215556735
In 0.00065361 -0.13017252 18.646670205
In 5.157332675 2.841639625 6.236193355
In 5.157768415 2.754857945 18.667306825
In 3.411191075 -0.089441155 6.215489735
In 3.411626815 -0.176222835 18.646603205
In 1.7463594699999998 2.88768994 6.236260355
In 1.74679521 2.80090826 18.667373825
In 0.0 0.0 0.0
In 0.00043574 -0.08678168 12.43111347
In 5.157114805 2.885030465 0.02063662
In 5.157550545 2.798248785 12.45175009
In 3.410973205 -0.046050315 -6.7e-05
In 3.411408945 -0.132831995 12.43104647
In 1.7461415999999998 2.93108078 0.02070362
In 1.7465773399999998 2.8442991 12.45181709
In 0.0272095563334999 1.9475115979375 3.121601731692
Ga 0.0276452963334999 1.8607299179375 15.552715201692
Ga -1.6376220486665003 4.924642692937498 3.142372351692
Ga -1.6371863086665004 4.837861012937499 15.573485821692
In 3.4381827613335 1.9014612829375 3.121534731692
Ga 3.4386185013335 1.8146796029375 15.552648201692
Ga 1.7733511563334994 4.878592377937499 3.142305351692
Ga 1.7737868963334993 4.7918106979375 15.573418821692
In 1.7193677836664998 0.8967875020624999 9.330215358308
Ga 1.7198035236664997 0.8100058220624998 21.761328828308
Ga 0.0545361786664997 3.873918597062499 9.350985978308
Ga 0.0549719186664997 3.7871369170625 21.782099448308
Ga 5.130340988666501 0.8507371870625 9.330148358308
Ga 5.1307767286665005 0.7639555070624999 21.761261828308
Ga 3.4655093836665003 3.827868282062499 9.350918978308
Ga 3.4659451236665006 3.7410866020625 21.782032448308
O 0.0272809741194999 1.9332880805855 5.159061229424999
O 0.0277167141194999 1.8465064005855 17.590174699425
O -1.6375506308805003 4.910419175585499 5.179831849425
O -1.6371148908805004 4.8236374955855 17.610945319425
O 3.4382541791195 1.8872377655855 5.158994229425
O 3.4386899191195 1.8004560855855 17.590107699424994
O 1.773422574119499 4.8643688605855 5.179764849425
O 1.7738583141194992 4.7775871805855 17.610878319424998
O 1.7192963658804998 0.9110110194145 7.2927558605749985
O 1.7197321058804995 0.8242293394144998 19.723869330575003
O 0.0544647608804997 3.8881421144144994 7.313526480575
O 0.0549005008804997 3.8013604344144993 19.744639950575003
O 5.1302695708805 0.8649607044145 7.292688860575
O 5.130705310880501 0.7781790244144999 19.723802330575
O 3.465437965880501 3.8420917994144994 7.313459480574998
O 3.4658737058805005 3.7553101194144993 19.744572950575
O 1.7194392014524995 0.8825639847104999 11.367674856041
O 1.7198749414524996 0.7957823047104998 23.798788326041
O 0.0546075964524997 3.8596950797104994 11.388445476041
O 0.0550433364524997 3.7729133997104993 23.819558946041
O 5.130412406452501 0.8365136697105 11.367607856041
O 5.130848146452501 0.7497319897104999 23.798721326040997
O 3.4655808014525005 3.8136447647104994 11.388378476041002
O 3.4660165414525004 3.7268630847104993 23.819491946040998
O 0.0271381385474999 1.9617351152895 1.084142233959
O 0.0275738785474999 1.8749534352895 13.515255703959
O -1.6376934664525005 4.9388662102895 1.104912853959
O -1.6372577264525003 4.852084530289499 13.536026323959
O 3.4381113435474995 1.9156848002895 1.084075233959
O 3.4385470835474994 1.8289031202895 13.515188703959
O 1.7732797385474992 4.8928158952895 1.104845853959
O 1.7737154785474991 4.8060342152895 13.535959323959
O 0.000108935 -0.02169542 3.1077783675
O 0.000544675 -0.1084771 15.5388918375
O 5.15722374 2.863335045 3.1284149875
O 5.15765948 2.776553365 15.5595284575
O 3.41108214 -0.067745735 3.1077113675
O 3.41151788 -0.154527415 15.5388248375
O 1.746250535 2.90938536 3.1284819875
O 1.7466862749999998 2.82260368 15.5595954575
O 0.000326805 -0.06508626 9.3233351025
O 0.000762545 -0.15186794 21.7544485725
O 5.15744161 2.819944205 9.3439717225
O 5.15787735 2.733162525 21.7750851925
O 3.41130001 -0.111136575 9.3232681025
O 3.41173575 -0.197918255 21.7543815725
O 1.746468405 2.86599452 9.3440387225
O 1.7469041449999998 2.77921284 21.7751521925
