80   
   
In 7.2632195875 2.4185117750000003 7.251815834999999
Al 2.4194672175000003 7.25122763 7.2633208
Al 7.2522777975 7.262625485 2.41926151
Al 7.2578419725 7.25672781 7.257599205
In 2.4139030425000003 7.257125305 2.424983105
Al 7.2576554125 2.42440945 2.41347814
Al 2.4248448325000003 2.4130115950000004 7.25753743
In 2.4192806575000003 2.4189092700000003 2.419199735
In 7.25811437032 4.51156993962 4.83514540334
In 2.40879782532 9.35018346962 0.00831267334
Al 7.25181883968 5.1754649953800005 -0.00240575334
Al 4.8354941436 7.2573275994 4.51228419174
In 0.0080611786 2.4077137094000003 9.35056011174
Al -0.0021238836 7.2510253356 5.1760197132600005
Al 4.5123339191600005 4.834495690260001 7.25795738596
Al 9.35052211416 0.00767751026 2.40811472596
In 5.17573050084 -0.00297232026 7.251395879039999
In 2.41900825968 5.164067140380001 4.84165353666
Ga 7.25719645468 0.3372489603800001 -0.00818912334
In 2.41417544032 4.511967434620001 0.00252930334
In 4.8416284864 2.4183094806 5.16451474826
Al -0.0076880586 7.2569230106 0.33768201826
Ga 0.0024970036 2.4136113844 4.51222241674
In 5.164788710840001 4.841141389740001 2.41884155404
Ga 0.33735574584 -0.00847250026 7.25711747404
In 4.51214735916 0.00217733026 2.41383632096
In 2.42438587468 0.3258511053800001 4.83587016666
In 4.8360643114 2.4242071556 0.32617705326
Al 0.32641395584 4.83564120974 2.42456314904
Al 7.25273675532 9.34978597462 4.84092877334
In 4.841058318600001 7.251429924400002 9.35062188674
In 9.35070867416 4.83999587026 7.252235790959999
O 6.00267959887 3.7825674129700007 6.34532687338
O 3.67697423127 8.615925835770001 8.1730715823
O 8.51072565633 5.900787372830001 1.5065354983
O 6.00242708853 5.88981207843 8.167063396019998
O 6.345630620810001 6.00199213771 3.78324472365
O 8.173004958890001 3.67581883359 8.61665508133
O 1.50688548631 8.50979290961 5.90148890607
O 8.16728550899 6.00148881909 5.89060863895
O 3.78345320453 6.344727461680001 6.00265223595
O 8.61713517229 8.172227754839998 3.67670309447
O 5.90125558371 1.5058427141600002 8.51030985193
O 5.89096261447 8.166294769319999 6.00233216765
O 3.674443031130001 5.89306966703 3.3314720666199995
O 6.00014839873 1.05971124423 1.5037273577
O 1.1663969736700002 3.774849707170001 8.170263441699998
O 3.67469554147 3.785825001570001 1.50973554398
O 3.33149200919 3.67364494229 5.89355421635
O 1.5041176711100002 5.999818246410001 1.06014385867
O 8.17023714369 1.16584417039 3.77531003393
O 1.50983712101 3.67414826091 3.78619030105
O 5.893669425470001 3.33090961832 3.67414670405
O 1.05998745771 1.5034093251600005 6.00009584553
O 3.77586704629 8.169794365839998 1.1664890880699998
O 3.78616001553 1.50934231068 3.67446677235
O 1.1533630538700002 8.621180942969998 1.51849414338
O 8.51516242627 3.789107655770001 3.3232289223
O 3.68329269133 1.05117348283 6.3448114183
O 1.16386577353 1.05199353843 3.3286639260199995
O 1.51819765581 1.15237824771 8.621520643649998
O 3.32368841389 8.51443236359 3.78982235133
O 6.345073681310001 3.6829747296100006 1.05164624607
O 3.32872419399 1.16367027909 1.05220916895
O 8.62164139953 1.5179092816800002 1.15280957595
O 3.78970220729 3.32261386484 8.51497901447
O 1.05193903871 6.344456244160001 3.68347712193
O 1.05240129947 3.32847622932 1.16393269765
O 8.523759576130002 1.05445613703 8.158304796619998
O 1.16196020373 5.88652942423 6.3535700177
O 5.99382993867 8.624463597170001 3.3319875216999995
O 8.51325685647 8.62364354157 6.34813501398
O 8.15892497419 8.52325883229 1.05527829635
O 6.35343421611 1.16120471641 5.88697658867
O 3.33204894869 5.992662350390001 8.625152693929998
O 6.348398436010001 8.51196680091 8.62458977105
O 1.05548123047 8.157727798319998 8.523989364049998
O 5.887420422709999 6.35302321516 1.16181992553
O 8.625183591290002 3.33118083584 5.99332181807
O 8.62472133053 6.347160850680001 8.51286624235
