80   
   
In 1.7589433464499995 7.940293349499998 6.87503387082
In 7.21580327145 7.9284089095 6.84419619582
Ga 3.76842985145 1.3858112309599997 1.92820710462
Al 9.22528977645 1.3739267909599997 1.89736942962
Al 1.04404209075 3.270589700059999 1.93580151252
In 6.50090201575 3.2587052600599997 1.90496383752
In 4.483331107150001 6.0555148804 6.867439462919999
In 9.94019103215 6.0436304404 6.83660178792
Ga 0.989945098775 6.118042249139999 -0.031007442225
In 6.446805023775 6.106157809139999 -0.061845117225
In 4.515170901225 3.19183540586 4.923858597225
Ga 9.972030826225 3.17995096586 4.893020922225
In 1.783058933125 1.4863624286599997 4.946404637925
Ga 7.239918858124998 1.4744779886599997 4.915566962925
In 3.778547416875 7.864700316339999 9.871293777075
In 9.235407341875002 7.8528158763399984 9.840456102075
In 0.97378665405 0.3181824054899999 9.90857963934
Ga 6.43064657905 0.3062979654899999 9.87774196434
Ga 4.58770671525 9.032797969329998 4.88926908114
In 10.04456664025 9.020913529329999 4.85843140614
In 1.85047195675 4.94622558733 4.92173123064
Al 7.30733188175 4.93434114733 4.89089355564
In 3.71102141255 4.404754787489999 9.87611748984
Ga 9.167881337550002 4.39287034749 9.84527981484
In 3.785548665375 1.48455544378 7.783649622645
Al 9.242408590375 1.47267100378 7.752811947645
In 1.751992795525 7.848962452879999 2.806063859595
In 7.208852720525 7.837078012879998 2.775226184595
In 4.476700730625 6.11300269658 2.797849694895
In 9.933560655625 6.10111825658 2.767012019895
In 1.0608407302749998 3.22051520008 7.791863787345
In 6.517700655275 3.20863076008 7.761026112345
O 4.587570052475 6.249408513559999 8.811410589405
O 10.044429977474996 6.2375240735599995 8.780572914405
O 0.961947362625 3.09284062218 3.882370511955
O 6.418807287625 3.08095618218 3.851532836955
O 3.687135559325 1.5801089350800002 3.873226712055
O 9.143995484325 1.5682244950800002 3.842389037055
O 1.862381855775 7.762140200659998 8.820554389305
O 7.319241780775 7.750255760659998 8.789716714304998
O 2.900563988875 0.10337661656 6.226190533965
O 8.357423913874998 0.09149217656 6.195352858965
O 2.619126521425 9.21712679166 1.227271214115
O 8.075986446425 9.20524235166 1.196433539115
O 5.337911230124999 4.728020848559999 1.230522550215
O 10.794771155125 4.716136408559999 1.199684875215
O 0.181779280175 4.59248255966 6.222939197865
O 5.638639205174999 4.58059811966 6.192101522865
O 0.105237245525 7.6968723471399985 1.168410273735
O 5.562097170524999 7.684987907139998 1.137572598735
O 5.413549419175 1.62297209964 6.126253918185
O 10.870409344175 1.61108765964 6.095416243185
O 2.6882011352749995 3.0612944303400003 6.135707596485
O 8.145061060274998 3.04940999034 6.104869921485
O 2.8305855294250004 6.258550016439999 1.1589565954349998
O 8.287445454425 6.24666557644 1.128118920435
O 5.3568177919 7.781200985989998 6.26973477378
O 10.8136777169 7.76931654599 6.23889709878
O 0.1638895447 1.5400437538499998 1.3623742249800002
O 5.6207494697 1.5281593138499998 1.33153654998
O 2.8957213602 3.11530035735 1.3403704714800002
O 8.352581285200001 3.10341591735 1.30953279648
O 2.6249859764 6.20594438249 6.29173852728
O 8.081845901399998 6.19405994249 6.26090085228
O 2.022248929025 1.6125748286 8.577200410485
O 7.479108854024998 1.6006903886 8.546362735484998
O 3.524218007175 7.7274503122799985 3.580638938835
O 8.981077932174998 7.715565872279998 3.549801263835
O 0.792586300675 6.24520540428 3.602255344335
O 6.249446225675 6.23332096428 3.571417669335
O 4.753880635525 3.0948197365999994 8.555584004985
O 10.210740560525 3.0829352966 8.524746329984998
O 4.6127962232 0.03643235871 8.9065435029
O 10.0696561482 0.02454791871 8.875705827900001
O 0.9375120568 9.30639336829 3.9261854601
O 6.394371981799999 9.29450892829 3.8953477851
O 3.6559765911 4.668468712389999 3.930056553
O 9.112836516099998 4.656584272389999 3.899218878
O 1.8943316889 4.67435701461 8.902672410000001
O 7.351191613900002 4.662472574610001 8.871834735
