80   
   
Ga 7.432006215 2.473268895 7.4294214425
Al 2.4762777 7.424278769999998 7.436060992499998
Ga 7.42782288 7.4313680999999985 2.4804950075
In 7.429760055000002 7.426678184999998 7.433990332499999
Ga 2.474340525 7.428968684999998 2.4825656675
In 7.43006904 2.47795881 2.4759261175
In 2.47852386 2.47086948 7.431492102499998
In 2.476586685 2.475559395 2.4779967775
In 7.43006728638 4.61548666578 4.95464754048
In 2.47240159638 9.57118645578 0.00779176548
Al 7.42782463362 5.29384024422 0.00177358452
In 4.9519185621 7.42814234922 4.6214403179
Al 0.0026195421 2.46764372922 9.5724374129
Al -0.0013003371 7.425105105779998 5.2971863421
In 4.617305157360001 4.948610672279999 7.4328820223799985
In 9.57109649736 0.00229071228 2.47274714738
In 5.293224917640001 -0.00447229728 7.428031522619999
In 2.47627945362 5.28675091422 4.957339569519999
In 7.43007079362 0.34043095422 -0.00279530548
In 2.47464775638 4.61777716578 0.00322287548
Ga 4.9544281779 2.47409523078 5.2905467921
In -0.0032375121 7.4297950207799985 0.3436910171
In 0.0006823671 2.47233364422 4.6189420879
In 5.28904158264 4.95362690772 2.47910508762
In 0.3397425626400001 -0.00687171228 7.43010218262
In 4.617614142360001 -0.00010870272 2.47481780738
Al 2.4785256136200005 0.33334162422 4.95277067952
In 4.9524910029 2.47878514578 0.3370514671
In 0.3355592276400001 4.951227492719999 2.48117574762
In 7.42782112638 9.56889595578 4.95921643048
Al 4.9538557371000005 7.423452434219999 9.574935642899998
Ga 9.57078751236 4.95101008728 7.430811362379998
O 6.143103196680001 3.8703881709 6.49999111998
O 3.76391388408 8.82088233366 8.36806816898
O 8.71599752052 6.036012232139999 1.5474110878199998
O 6.142852248720001 6.028311213299999 8.36449739822
O 6.4976984822100015 6.14170803855 3.87658206183
O 8.363223179490001 3.76028384439 8.827105751469999
O 1.5438927323099998 8.713036651409999 6.04075250633
O 8.36105245599 6.14056541565 6.03552745537
O 3.87307833669 6.49493383641 6.14670933056
O 8.824786291529998 8.362066303649998 3.7686788172
O 6.036050134470001 1.5401319355499998 8.7170552018
O 6.0319520873100005 8.35846187439 6.14752442544
O 3.76324354332 6.0318494090999994 3.4119959900199994
O 6.142432855920001 1.0813552463399998 1.5439189410199998
O 1.1903492194800005 3.86622534786 8.364576022179998
O 3.76349449128 3.8739263667 1.54748971178
O 3.4086482577899995 3.76052954145 6.03540504817
O 1.54312356051 6.14195373561 1.08488135853
O 8.362454007690001 1.1892009285899998 3.87123460367
O 1.54529428401 3.76167216435 3.87645965463
O 6.033268403310001 3.407303743589999 3.76527777944
O 1.08156044847 1.54017127635 6.1433082928
O 3.870296605530001 8.36210564445 1.1949319081999998
O 3.874394652690001 1.54377570561 3.76446268456
O 1.18543750668 8.8260879609 1.5531353449799998
O 8.717705224079998 3.87456237366 3.40793329398
O 3.76669850052 1.0755136121399995 6.49840818282
O 1.18967887872 1.0771924233 3.408503843219999
O 1.54839946221 1.1812094185499995 8.827579156829998
O 3.40555748949 8.715983634389998 3.88024997647
O 6.49768407231 3.76671669141 1.08061763133
O 3.40787908599 1.1894466256499998 1.07953390037
O 8.82686967669 1.54861387641 1.1865744555599995
O 3.87548727153 3.40156768365 8.719675912199998
O 1.07838444447 6.49583172555 3.7701994268
O 1.07877871731 3.4073430843899994 1.1915308704399998
O 8.72090923332 1.0761496191 8.35885176502
O 1.18864151592 6.027675206339999 6.50405381602
O 6.1396482394800005 8.826723967860001 3.4135789271799992
O 8.716667861280001 8.825045156700002 6.50348326678
O 8.35794727779 8.721028161449999 1.08440795317
O 6.50078925051 1.18625394561 6.031737133529999
O 3.40866266769 6.13552088859 8.83136947867
O 6.498467654010001 8.71279095435 8.832453209629998
O 1.0794770633100002 8.353623703589998 8.725412654439998
O 6.03085946847 6.50066989635 1.1923111977999998
O 8.82796229553 3.406405854449999 6.1417876832
O 8.82756802269 6.49489449561 8.72045623956
