40   
   
Al 11.861313372683506 1.8372211007867232 2.451439904020888
In 8.053018113996707 1.8619916590822967 11.12697289841308
Al 5.0608753143881104 1.9217532334439469 1.5215382048312989
In 4.571183769388111 1.9007585884439464 12.4901189973313
Ga 8.461094401496707 1.8794871965822968 1.9864889046630811
Al 11.453237085183506 1.8197255632867233 11.591923897770888
Ga 9.208114185183504 0.3743703032867228 4.455300102770888
Al 0.4219132914967066 0.467788666582297 9.69126169466308
In 6.638561965183505 1.8953715832867233 4.496158897770888
In 2.993497221496707 1.927140356582297 9.51549829466308
Al 8.216248622467486 1.8689898738023687 7.470779447160826
Al 11.698082864212724 1.830222886066652 6.107633355273144
Al 4.816029541888112 1.9112559109439464 7.005828601081299
In 7.71204279188811 0.4042510609439465 -0.3474173889187013
Al 2.57090664188811 0.4659006509439464 -0.1307951939187013
Ga 10.28362672188811 1.8636027509439463 -0.5231807889187012
O 7.582039015067487 0.4564023120023685 3.3290086356608253
O 2.0480697300127257 0.5049707766666515 10.812156977573144
O 11.946193247012724 1.840860172866652 0.5502190870731442
O 7.9681382396674865 1.8583525870023685 13.028193715360826
O 2.440821596667486 0.3988377832023684 3.5510270148608254
O 7.1891246116127245 0.3241070678666514 10.600930966773143
O 10.050759587867487 1.8573799344023687 3.1602757716608254
O 9.863571898812724 1.841832825466652 10.418137030773144
O 4.975995498019789 1.91811419083098 3.422758872016031
O 4.656063688619788 1.90439768943098 10.588898323116032
O 4.196981914867486 0.3838687006023684 0.9954962661608252
O 5.432964293412726 0.3390761504666515 13.156461715473144
O 9.338199333267486 0.4414332294023685 0.7734778869608254
O 10.574181711812727 0.3966406792666515 12.934443336273144
O 6.871429202067486 1.9015944582023685 0.8127023301608254
O 13.04290228461273 1.7976183016666516 12.765710472273144
O 3.9369742134197887 0.4881710558309802 8.34834818231603
O 5.693134531619789 0.4732019732309803 5.792817433616031
O 8.301128496796707 1.872628945882297 5.5695586302130815
O 11.613202989883506 1.8265838139867232 8.00885417222089
O 9.078029095019788 0.3073073470309802 8.13712217151603
O 0.5519171132197886 0.4156374444309802 6.014835812816031
O 6.405694786219788 1.8891486782309803 8.17961531831603
O 3.2263644004197887 1.9333632020309803 5.832041876816032
