80   
   
In -0.006457235 -0.038930835 6.179517785
In -0.019371705 -0.116792505 18.538553355
Ga 5.087692695 2.8174433650000004 6.20311286
In 5.074778225 2.7395816950000005 18.56214843
In 3.364812845 -0.081168185 6.182928335
In 3.351898375 -0.159029855 18.541963905
In 1.716422615 2.859680715 6.19970231
Ga 1.703508145 2.781819045 18.55873788
In 0.0 0.0 0.0
Ga -0.01291447 -0.07786167 12.35903557
Ga 5.09414993 2.8563742000000003 0.023595075
Ga 5.08123546 2.7785125300000004 12.382630645
Ga 3.37127008 -0.04223735 0.00341055
In 3.35835561 -0.12009902 12.36244612
In 1.72287985 2.89861155 0.020184525
In 1.70996538 2.82074988 12.379220095
In 0.0215987728459999 1.926826750485 3.10207716055
In 0.0086843028459999 1.848965080485 15.46111273055
Ga -1.626791457154 4.867675650485 3.11885113555
In -1.639705927154 4.789813980485 15.477886705549997
In 3.392868852846 1.884589400485 3.10548771055
Ga 3.379954382846 1.806727730485 15.46452328055
Ga 1.744478622846 4.8254383004850006 3.12226168555
Ga 1.7315641528460002 4.747576630485001 15.48129725555
Ga 1.6883666071539998 0.893923129515 9.27714293445
Ga 1.675452137154 0.816061459515 21.63617850445
In 0.0399763771539999 3.834772029515 9.29391690945
Ga 0.0270619071539999 3.756910359515 21.65295247945
Ga 5.059636687154001 0.851685779515 9.28055348445
Ga 5.0467222171540005 0.773824109515 21.63958905445
In 3.411246457154 3.792534679515 9.29732745945
Al 3.398331987154 3.714673009515 21.65636302945
O 0.0194820912129999 1.914065222772 5.127723090472999
O 0.0065676212129999 1.836203552772 17.486758660472994
O -1.628908138787 4.8549141227720005 5.144497065473
O -1.641822608787 4.777052452772001 17.503532635472997
O 3.390752171213 1.871827872772 5.131133640473
O 3.377837701213 1.7939662027719998 17.490169210473
O 1.742361941213 4.812676772772001 5.147907615473
O 1.729447471213 4.734815102772001 17.506943185473
O 1.6904832887869998 0.906684657228 7.251497004527
O 1.677568818787 0.828822987228 19.610532574527003
O 0.0420930587869999 3.847533557228001 7.268270979526998
O 0.0291785887869999 3.7696718872280006 19.627306549527002
O 5.061753368787 0.864447307228 7.254907554526999
O 5.048838898787 0.786585637228 19.613943124527
O 3.4133631387870005 3.805296207228 7.271681529526998
O 3.4004486687870004 3.727434537228 19.630717099527
O 1.686249925521 0.881161601802 11.302788864373
O 1.6733354555209998 0.803299931802 23.661824434373
O 0.0378596955209999 3.822010501802001 11.319562839373
O 0.0249452255209999 3.7441488318020006 23.678598409373
O 5.057520005521 0.838924251802 11.306199414373
O 5.044605535521001 0.761062581802 23.665234984372997
O 3.4091297755210004 3.779773151802 11.322973389373
O 3.3962153055210003 3.701911481802001 23.682008959372997
O 0.0237154544789999 1.939588278198 1.076431230627
O 0.0108009844789999 1.861726608198 13.435466800627
O -1.624674775521 4.880437178198 1.093205205627
O -1.6375892455210002 4.802575508198 13.452240775627
O 3.394985534479 1.897350928198 1.079841780627
O 3.382071064479 1.819489258198 13.438877350627
O 1.746595304479 4.838199828198 1.096615755627
O 1.733680834479 4.760338158198 13.455651325627
O -0.0032286175 -0.0194654175 3.0897588925
O -0.0161430875 -0.0973270875 15.4487944625
O 5.090921312500001 2.8369087825 3.1133539675
O 5.078006842500001 2.7590471125 15.4723895375
O 3.3680414625 -0.0617027675 3.0931694425
O 3.3551269925 -0.1395644375 15.4522050125
O 1.7196512325 2.8791461325 3.1099434175
O 1.7067367625 2.8012844625 15.4689789875
O -0.0096858525 -0.0583962525 9.2692766775
O -0.0226003225 -0.1362579225 21.6283122475
O 5.084464077500001 2.7979779475 9.2928717525
O 5.071549607500001 2.7201162775000003 21.6519073225
O 3.3615842275 -0.1006336025 9.2726872275
O 3.3486697575 -0.1784952725 21.6317227975
O 1.7131939975 2.8402152975 9.2894612025
O 1.7002795275 2.7623536275 21.6484967725
