40   
   
Al 0.0459992705808125 3.378357728075992 13.802981273756895
Al 1.4917197734211207 2.5367965532617798 2.4006396246591195
Al 2.947909568421121 -0.0212233967382206 2.39392989965912
Al -1.4518004215788791 2.5544422532617794 2.40633241965912
Al 2.9539004259980666 1.6818190161622286 -0.0031172434160168
In 0.0076814034211208 -0.0062609692382206 4.19933967965912
Al -1.4326414440019333 4.246751576162229 7.208153216583984
Al 0.0235483509980666 1.6887316261622287 7.201443491583984
Al 1.5108787509980668 4.2291058761622295 7.202460421583984
Al 0.0295391205808125 3.3917740905759914 4.804396348756897
In 0.0394152105808125 3.383724273075992 10.203547303756896
Al 2.9703605759980665 1.6684026536622287 8.995467681583982
Al 4.442417230580813 0.8053753505759915 11.990861768756895
In 2.9862274355808123 3.363395300575992 11.997571493756896
In 1.4988970355808124 0.8230210505759915 11.996554563756897
Al 0.0175574934211208 -0.0143107867382206 9.598490634659122
O 4.364046203198067 0.8557813828622289 1.2167214999839833
O 2.9661039999980665 3.3114805348622287 1.2231628359839837
O 1.5382668159980668 0.872721254862229 1.222186583183983
O 0.0240098722211208 -0.0195700008382206 13.12593592525912
O 0.0230867417808125 3.3970333046759915 1.2769510581568972
O 1.5700908887980665 2.4863904694622287 13.174779893183985
O 2.968033091998066 0.030691317462229 13.168338557183985
O 4.395870275998067 2.4694505974622287 13.169314809983984
O 1.4396848977808128 2.565736457275991 6.024235092156897
O 0.0417426945808129 5.021435609275992 6.030676428156897
O -1.3860944894191876 2.582676329275991 6.029700175356898
O 2.9603528047980667 1.6765598020622283 3.5243280471839835
O 0.0111051146211208 -0.0090515726382206 6.0710453440591206
O -1.3806066566191877 4.217811723875992 3.5845576053568973
O 0.0173355465808126 1.7621125718759916 3.5781162693568973
O 1.4451727305808129 4.200871851875992 3.579092522156897
O -1.4846763193788792 4.275691479961778 10.83174882805912
O 0.0297610674211208 1.6153507319617793 10.82477071405912
O 1.5765846834211217 4.257339951961779 10.82582832125912
O 0.0359914993808125 3.386514876475992 8.331841639356897
O 2.9737842871980664 1.6656120502622287 10.867173345983986
O 4.49445210622112 0.7764354465617793 8.367266301259122
O 2.98001471942112 3.436776194561779 8.37424441525912
O 1.4331911034211209 0.7947869745617794 8.37318680805912
