80   
   
Ga 1.6720424739900002 7.512126859010001 6.555909144409999
Ga 6.815060803990001 7.487006914010002 6.53161537441
Ga 3.5535349770500004 1.30095977337 1.84021522247
In 8.696553307049998 1.27583982837 1.81592145247
Ga 0.99067161607 3.0950172671900003 1.84833295689
Ga 6.13368994607 3.06989732219 1.82403918689
Ga 4.234905834970001 5.718069365190001 6.54779140999
Ga 9.37792416497 5.692949420190001 6.52349763999
Al 0.94876334565 5.7985994161250005 -0.01747324365
In 6.091781675650001 5.773479471125 -0.04176701365
Ga 4.259292074349999 3.0061524338750005 4.69379494365
In 9.402310404350002 2.9810324888750004 4.66950117365
Ga 1.6799075235100005 1.395962188935 4.70961194601
Ga 6.82292585351 1.370842243935 4.68531817601
Al 3.572620056490001 7.429943931065002 9.40783327399
Ga 8.715638386489998 7.404823986065 9.38353950399
Ga 0.90973879758 0.28149180477 9.42700265442
Ga 6.05275712758 0.25637185977 9.40270888442
Ga 4.3426998381 8.54437200669 4.67156031854
Ga 9.4857181681 8.51925206169 4.64726654854
Al 1.7523582287 4.676442328790001 4.69248357114
Al 6.895376558700001 4.651322383790001 4.66818980114
Al 3.5000804069800004 4.149421482669999 9.40607940182
Al 8.64309873698 4.124301537669999 9.38178563182
Ga 3.5646869045400007 1.384070509785 7.41039141026
In 8.70770523454 1.358950564785 7.38609764026
Ga 1.6688955353 7.432823891195 2.68513519022
Al 6.8119138653 7.407703946195 2.66084142022
Al 4.23244371244 5.779875111935001 2.67669831516
Al 9.37546204244 5.754755166935001 2.65240454516
Ga 1.0011387274 3.0370192890450007 7.41882828532
In 6.1441570574 3.0118993440450006 7.39453451532
O 4.33190971014 5.898174456245001 8.397439700019998
O 9.47492804014 5.873054511245001 8.373145930019998
O 0.9111008276200002 2.923204649975 3.6996050867
O 6.054119157620001 2.898084704975 3.6753113167
O 3.4756762290000003 1.481918942555 3.69068950068
O 8.618694559000001 1.4567989975550002 3.66639573068
O 1.76733430876 7.339460163664999 8.40635528604
O 6.91035263876 7.314340218664999 8.38206151604
O 2.7284428209800007 0.079491716645 5.92553294822
O 7.87146115098 0.054371771645 5.90123917822
O 2.4910864163 8.730717935015 1.18659861994
O 7.634104746300002 8.705597990015002 1.16230484994
O 5.04196549448 4.467257936395001 1.18406584672
O 10.18498382448 4.4421379913950005 1.15977207672
O 0.1775637428 4.342951715265 5.92806572144
O 5.3205820728 4.317831770265 5.90377195144
O 0.11792284158 7.295739551315 1.12551595754
O 5.26094117158 7.270619606315 1.10122218754
O 5.10089484114 1.514131632025 5.8355576343
O 10.24391317114 1.489011687025 5.8112638643
O 2.5359770316800003 2.8848629821650005 5.84463279064
O 7.678995361680002 2.8597430371650003 5.82033902064
O 2.68284065104 5.925008201175 1.1164408012
O 7.825858981039999 5.899888256175 1.0921470312
O 5.06312589819 7.35319087882 5.98316810917
O 10.20614422819 7.32807093382 5.95887433917
O 0.15720383797 1.4573995497000003 1.29890368235
O 5.30022216797 1.4322796047000004 1.27460991235
O 2.73598917467 2.9441196694 1.28336592805
O 7.87900750467 2.9189997244000003 1.2590721580500002
O 2.48434056149 5.866470759120001 5.99870586347
O 7.62735889149 5.841350814120001 5.97441209347
O 1.90241867939 1.508531389875 8.16385204805
O 7.0454370093900005 1.4834114448750002 8.13955827805
O 3.3381903617300006 7.311705385765 3.42337206859
O 8.481208691730004 7.286585440765 3.39907829859
O 0.75983303513 5.9131782126650005 3.43871035999
O 5.90285136513 5.888058267665 3.41441658999
O 4.48077600599 2.9070585629750005 8.148513756649999
O 9.62379433599 2.881938617975001 8.12421998665
O 4.33963106889 0.00685786364 8.47668162999
O 9.482649398890002 -0.01826208136 8.452387859989999
O 0.9040020791100002 8.814817402360001 3.75253888601
O 6.047020409109999 8.78969745736 3.72824511601
O 3.4541963411300003 4.41024868918 3.75032525343
O 8.59721467113 4.38512874418 3.72603148343
O 1.7894368068700002 4.41142657682 8.47889526257
O 6.932455136870001 4.386306631819999 8.45460149257
