80   
   
In 1.7280035228 7.84131954066 6.803340639739999
In 7.116425897800001 7.83259871066 6.77639820474
Al 3.71912776434 1.3701142371 1.90987816746
In 9.10755013934 1.3613934071000002 1.88293573246
In 1.0278713783000002 3.23040353358 1.91641217168
In 6.4162937533 3.22168270358 1.88946973668
In 4.419259908840001 5.98103024418 6.79680663552
Al 9.80768228384 5.97230941418 6.769864200519999
Al 0.974152651465 6.04398948635 -0.027420152985
Al 6.3625750264650005 6.03526865635 -0.054362587985
In 4.453551358535 3.1531704436500005 4.873575727985
Al 9.841973733535 3.1444496136500004 4.846633292985
In 1.7566486687150002 1.46698177849 4.893365991245
In 7.145071043714999 1.4582609484900002 4.866423556245
Ga 3.720363151285 7.76640619151 9.767670883754999
In 9.108785526285 7.757685361510002 9.740728448755
Al 0.9549522930900002 0.31035971472 9.79950981042
In 6.34337466809 0.30163888472 9.77256737542
In 4.521960911289999 8.922955799199999 4.84189730198
In 9.91038328629 8.9142349692 4.81495486698
Al 1.82131352259 4.8846988486 4.87047928108
Al 7.20973589759 4.875978018600001 4.84353684608
In 3.65559968179 4.348616665320001 9.770927831320002
In 9.04402205679 4.33989583532 9.74398539632
In 3.732171126955 1.46501707711 7.700464220645
In 9.120593501955 1.45629624711 7.673521785644998
In 1.7238355659850002 7.75293774785 2.779433220555
Al 7.112257940985 7.74421691785 2.752490785555
In 4.415325995705 6.039652719210001 2.772349734095
Al 9.803748370705 6.030931889210001 2.745407299095
Al 1.040680697235 3.1783021057500007 7.707547707105
In 6.429103072235 3.1695812757500006 7.680605272104998
O 4.520819974575 6.171738020710001 8.719378496124998
O 9.909242349575 6.163017190710001 8.692436061125
O 0.945639974085 3.05389714873 3.841273780675
O 6.334062349085 3.04517631873 3.814331345675
O 3.637481469325 1.56111852185 3.833366070855
O 9.025903844325 1.5523976918500002 3.806423635855
O 1.8289784793350004 7.66451664759 8.727286205945
O 7.217400854334999 7.655795817589999 8.700343770945
O 2.8600680089350003 0.10089890207 6.159106475565
O 8.248490383934998 0.09217807207 6.132164040565
O 2.580357416045 9.10560786225 1.219288474835
O 7.968779791045 9.09688703225 1.192346039835
O 5.267518037685 4.67274387857 1.222370409815
O 10.655940412685 4.664023048570001 1.195427974815
O 0.172907387295 4.53376288575 6.156024540585
O 5.561329762295 4.52504205575 6.129082105585
O 0.098889713345 7.60253587437 1.1587951374949998
O 5.487312088345 7.59381504437 1.131852702495
O 5.340746786675 1.60339124131 6.062561712105
O 10.729169161675 1.59467041131 6.035619277105
O 2.648788269595 3.02266773427 6.070744163045
O 8.037210644594998 3.0139469042700004 6.043801728045
O 2.790848230425 6.183259381410001 1.150612686555
O 8.179270605424998 6.17453855141 1.123670251555
O 5.28121908583 7.68642207066 6.20703011818
O 10.66964146083 7.67770124066 6.18008768318
O 0.16009387973 1.5207367983800002 1.3480326956200002
O 5.548516254730001 1.51201596838 1.32109026062
O 2.85679178133 3.0782967291800007 1.32872322932
O 8.245214156329999 3.0695758991800006 1.3017807943200002
O 2.58452118423 6.128862139860001 6.22633958448
O 7.97294355923 6.120141309860001 6.19939714948
O 1.990407754935 1.5901456088100003 8.484122737965
O 7.378830129935 1.5814247788100002 8.457180302965
O 3.4733895719850003 7.63353324647 3.546525948635
O 8.861811946984998 7.624812416469998 3.519583513635
O 0.776837947685 6.167850983070001 3.565491988535
O 6.1652603226850005 6.1591301530700004 3.538549553535
O 4.686959379235001 3.05582787221 8.465156698065
O 10.075381754235 3.0471070422100004 8.438214263064998
O 4.549112762229999 0.03450238886 8.8108349517
O 9.93753513723 0.02578155886 8.7838925167
O 0.91803749577 9.191639973140001 3.8872256633
O 6.30645987077 9.18291914314 3.8602832283
O 3.6049640737300006 4.61177172162 3.89085708052
O 8.99338644873 4.603050891620001 3.86391464552
O 1.8621861842700005 4.614370640380001 8.80720353448
O 7.25060855927 4.60564981038 8.78026109948
