80   
   
In 0.01606176 -0.062832945 6.316020485
In 0.04818528 -0.188498835 18.948061455
In 5.330951540000001 2.94907426 6.333786445
In 5.363075060000001 2.82340837 18.965827415
In 3.54242699 -0.09087545 6.30789601
In 3.5745505100000003 -0.21654134 18.93993698
In 1.80458631 2.977116765 6.34191092
In 1.83670983 2.851450875 18.97395189
In 0.0 0.0 0.0
In 0.03212352 -0.12566589 12.63204097
In 5.314889780000001 3.011907205 0.01776596
In 5.3470133 2.886241315 12.64980693
In 3.52636523 -0.028042505 -0.008124475
In 3.55848875 -0.153708395 12.623916495
In 1.7885245500000002 3.03994971 0.025890435
In 1.8206480700000005 2.91428382 12.657931405
In 0.024923813871 2.0043605711025 3.1779766939885
Ga 0.057047333871 1.8786946811025 15.8100176639885
In -1.712916866129 5.0723527861025 3.2119916039885
In -1.680793346129 4.9466868961025 15.8440325739885
Ga 3.5512890438710003 1.9763180661025 3.1698522189885
Ga 3.583412563871 1.8506521761025 15.8018931889885
In 1.813448363871 5.0443102811025 3.2038671289885
In 1.845571883871 4.9186443911025 15.835908098988499
In 1.795724256129 0.9099232488975 9.479954711011501
In 1.827847776129 0.7842573588974999 22.111995681011493
In 0.0578835761290003 3.9779154638975 9.513969621011501
In 0.0900070961290003 3.8522495738975 22.146010591011496
In 5.322089486129 0.8818807438974997 9.4718302360115
In 5.354213006129 0.7562148538974998 22.1038712060115
In 3.5842488061290005 3.9498729588975 9.5058451460115
In 3.616372326129 3.8242070688975 22.1378861160115
O 0.030188858799 1.9837639317315 5.2483682089715
O 0.062312378799 1.8580980417315 17.8804091789715
O -1.707651821201 5.0517561467315 5.2823831189715
O -1.6755283012009998 4.9260902567315 17.9144240889715
O 3.556554088799 1.9557214267314995 5.2402437339715
O 3.588677608799 1.8300555367315 17.8722847039715
O 1.818713408799 5.0237136417315 5.2742586439715
O 1.850836928799 4.8980477517315 17.9062996139715
O 1.790459211201 0.9305198882685 7.4095631960284996
O 1.822582731201 0.8048539982684999 20.041604166028506
O 0.0526185312010003 3.9985121032685 7.443578106028499
O 0.0847420512010003 3.8728462132685 20.075619076028506
O 5.316824441201 0.9024773832684998 7.401438721028499
O 5.3489479612010005 0.7768114932684997 20.0334796910285
O 3.5789837612010005 3.9704695982685 7.4354536310284995
O 3.611107281201 3.8448037082685 20.067494601028496
O 1.800989301057 0.8893266095264999 11.550346225994499
O 1.833112821057 0.7636607195264999 24.1823871959945
O 0.0631486210570003 3.9573188245265 11.584361135994499
O 0.0952721410570003 3.8316529345265 24.2164021059945
O 5.327354531057 0.8612841045264997 11.5422217509945
O 5.359478051057 0.7356182145264998 24.174262720994495
O 3.5895138510570006 3.9292763195265 11.5762366609945
O 3.621637371057001 3.8036104295265 24.208277630994495
O 0.019658768943 2.0249572104735 1.1075851790055
O 0.051782288943 1.8992913204735 13.7396261490055
O -1.718181911057 5.0929494254735 1.1416000890055
O -1.686058391057 4.9672835354735 13.7736410590055
O 3.546023998943 1.9969147054735 1.0994607040055
O 3.578147518943 1.8712488154735 13.7315016740055
O 1.808183318943 5.0649069204735 1.1334756140055
O 1.840306838943 4.9392410304735 13.765516584005502
O 0.00803088 -0.0314164725 3.1580102425
O 0.0401544 -0.1570823625 15.7900512125
O 5.32292066 2.9804907325 3.1757762025000003
O 5.35504418 2.8548248425 15.8078171725
O 3.5343961100000003 -0.0594589775 3.1498857675000003
O 3.56651963 -0.1851248675 15.7819267375
O 1.7965554300000002 3.0085332375 3.1839006775
O 1.82867895 2.8828673474999995 15.8159416475
O 0.02409264 -0.0942494175 9.4740307275
O 0.05621616 -0.2199153075 22.1060716975
O 5.338982420000001 2.9176577875 9.4917966875
O 5.3711059400000005 2.7919918975 22.1238376575
O 3.55045787 -0.1222919225 9.4659062525
O 3.58258139 -0.2479578125 22.0979472225
O 1.8126171900000003 2.9457002925 9.4999211625
O 1.84474071 2.8200344025 22.1319621325
