80   
   
Ga 10.77747235532 6.217625e-06 1.154281985215
Ga 10.77746025032 3.004546607625 1.154308580215
Ga 22.94599348532 1.3242625e-05 1.162701520215
Al 22.94598138032 3.0045536326249995 1.162728115215
Ga 0.00708120468 -1.2625e-08 4.4474479297850005
Al 0.0070690996800001 3.004540377375 4.447474524785
Ga 12.17560233468 7.012375e-06 4.455867464785
Ga 12.17559022968 3.004547402375 4.455894059785001
Ga 4.69320573782 1.502272900125 1.150085515215
Ga 4.69319363282 4.506813290125001 1.150112110215
Ga 16.86172686782 1.502279925125 1.158505050215
Ga 16.86171476282 4.506820315125 1.158531645215
Ga 6.09133571718 1.502273694875 4.451670994785
Ga 6.09132361218 4.506814084875001 4.451697589785001
Al 18.25985684718 1.502280719875 4.460090529785
Ga 18.25984474218 4.506821109875 4.460117124785
Al 9.28431846481 1.502275540505 3.844105047115
Al 9.28430635981 4.506815930505 3.844131642115
Al 21.45283959481 1.502282565505 3.852524582115001
Al 21.45282748981 4.506822955505 3.852551177115001
Al 1.50022299019 1.502271054495 1.757651462885
Al 1.50021088519 4.506811444495 1.757678057885
Al 13.668744120190002 1.502278079495 1.766070997885
Al 13.668732015190002 4.506818469495 1.766097592885
Al 3.2000639523100007 1.833005e-06 3.839881982115001
Al 3.2000518473100006 3.004542223005 3.839908577115001
Al 15.36858508231 8.858005e-06 3.848301517115
Al 15.36857297731 3.004549248005 3.848328112115
Al 7.58448960769 4.371995e-06 1.761847932885
Al 7.58447750269 3.004544761995 1.761874527885
Ga 19.75301073769 1.1396995e-05 1.770267467885
Al 19.75299863269 3.004551786995 1.770294062885
O 9.458573146420001 5.451335e-06 2.4512395915050003
O 9.45856104142 3.004545841335 2.4512661865050003
O 21.62709427642 1.2476335e-05 2.459659126505
O 21.62708217142 3.004552866335 2.459685721505
O 1.3259804135799995 7.53665e-07 3.150490323495
O 1.3259683085799996 3.004541143665 3.150516918495
O 13.49450154358 7.778665e-06 3.158909858495
O 13.49448943858 3.004548168665 3.158936453495
O 3.3743065289200005 1.502272133835 2.447043121505
O 3.3742944239200003 4.506812523835 2.447069716505
O 15.54282765892 1.502279158835 2.455462656505
O 15.54281555392 4.506819548835 2.455489251505
O 7.410234926080002 1.502274461165 3.154713388495
O 7.410222821080001 4.506814851165 3.154739983495
O 19.57875605608 1.502281486165 3.163132923495
O 19.57874395108 4.5068218761650005 3.163159518495
O 8.928984006249998 5.136075e-06 4.985076549925
O 8.928971901249998 3.004545526075 4.9851031449250005
O 21.09750513625 1.2161075e-05 4.993496084925
O 21.09749303125 3.004552551075 4.993522679925
O 1.85556955375 1.068925e-06 0.616653365075
O 1.85555744875 3.004541458925 0.616679960075
O 14.024090683750002 8.093925e-06 0.625072900075
O 14.02407857875 3.004548483925 0.6250994950750001
O 2.84471738875 1.502271818575 4.980880079925
O 2.84470528375 4.506812208575 4.980906674925
O 15.013238518749997 1.502278843575 4.989299614925001
O 15.01322641375 4.506819233575 4.989326209925
O 7.939824066250002 1.502274776425 0.620876430075
O 7.939811961250002 4.506815166425 0.6209030250750001
O 20.10834519625 1.502281801425 0.6292959650750001
O 20.10833309125 4.506822191425 0.629322560075
O -0.97961987249 1.50226961384 4.15587658798
O -0.97963197749 4.50681000384 4.15590318298
O 11.18890125751 1.50227663884 4.16429612298
O 11.18888915251 4.5068170288400005 4.16432271798
O 11.76416132749 1.50227698116 1.44587992202
O 11.76414922249 4.50681737116 1.44590651702
O 23.932682457489996 1.50228400616 1.45429945702
O 23.93267035249 4.506824396160001 1.45432605202
O 5.10464674501 2.93134e-06 4.16007305798
O 5.10463464001 3.00454332134 4.1600996529800005
O 17.27316787501 9.95634e-06 4.16849259298
O 17.27315577001 3.00455034634 4.16851918798
O 5.67990681499 3.27366e-06 1.44165685702
O 5.67989470999 3.00454366366 1.44168345202
O 17.84842794499 1.029866e-05 1.4500763920200002
O 17.84841583999 3.00455068866 1.4501029870200002
