80   
   
Al -0.0230795975 -0.0446507825 6.1181262675
Ga -0.0692387925 -0.1339523475 18.3543788025
In 4.9300887475 2.8521954425 6.1569763175
In 4.8839295525 2.7628938775 18.3932288525
Al 3.2895134825 -0.0259825025 6.1305704675
Ga 3.2433542875 -0.1152840675 18.3668230025
Al 1.6174956675 2.8335271625 6.1445321175
In 1.5713364725 2.7442255975 18.3807846525
Al 0.0 0.0 0.0
Al -0.046159195 -0.089301565 12.236252535
In 4.953168345 2.896846225 0.03885005
Ga 4.90700915 2.80754466 12.275102585
Ga 3.31259308 0.01866828 0.0124442
Ga 3.266433885 -0.070633285 12.248696735
Ga 1.640575265 2.878177945 0.02640585
Ga 1.59441607 2.78887638 12.262658385000002
In -0.0220196006650001 1.890045889163 3.0725176215
In -0.0681787956650001 1.800744324163 15.3087701565
In -1.6940374156650004 4.749555554163001 3.0864792715
In -1.7401966106650004 4.660253989163 15.3227318065
In 3.290573479335 1.908714169163 3.0849618215
In 3.244414284335 1.819412604163 15.3212143565
Ga 1.6185556643349994 4.768223834163001 3.0989234715
Al 1.5723964693349994 4.678922269163 15.3351760065
Ga 1.6164356706649998 0.8988304908370001 9.1901407635
In 1.5702764756649998 0.8095289258370001 21.4263932985
Al -0.0555821443350001 3.758340155837 9.2041024135
In -0.1017413393350001 3.669038590837 21.4403549485
Al 4.929028750665 0.917498770837 9.2025849635
In 4.882869555665001 0.8281972058370001 21.4388374985
Ga 3.2570109356650003 3.777008435837 9.2165466135
In 3.2108517406650003 3.687706870837 21.4527991485
O -0.0295850927255001 1.8754093626595 5.0780394119865
O -0.0757442877255001 1.7861077976595 17.3142919469865
O -1.7016029077255004 4.734919027659501 5.0920010619865
O -1.7477621027255004 4.645617462659501 17.3282535969865
O 3.2830079872745 1.8940776426595 5.0904836119865
O 3.2368487922745 1.8047760776595 17.326736146986498
O 1.6109901722744997 4.753587307659501 5.1044452619865
O 1.5648309772744995 4.664285742659501 17.3406977969865
O 1.6240011627255 0.9134670173405 7.1846189730135
O 1.5778419677255 0.8241654523405 19.4208715080135
O -0.0480166522745001 3.7729766823405 7.198580623013499
O -0.0941758472745001 3.6836751173405 19.4348331580135
O 4.9365942427255005 0.9321352973405 7.1970631730135
O 4.8904350477255 0.8428337323405 19.433315708013502
O 3.2645764277255003 3.7916449623405 7.211024823013499
O 3.2184172327255003 3.7023433973405 19.4472773580135
O 1.6088701786045 0.8841939643335001 11.1956625539865
O 1.5627109836045 0.7948923993335001 23.4319150889865
O -0.0631476363955001 3.7437036293335 11.209624203986499
O -0.1093068313955001 3.6544020643335 23.445876738986495
O 4.921463258604501 0.9028622443335 11.208106753986499
O 4.8753040636045 0.8135606793335001 23.4443592889865
O 3.2494454436045004 3.7623719093335 11.2220684039865
O 3.2032862486045004 3.6730703443335 23.458320938986496
O -0.0144541086045001 1.9046824156665 1.0669958310135
O -0.0606133036045001 1.8153808506665 13.3032483660135
O -1.6864719236045005 4.764192080666501 1.0809574810135
O -1.7326311186045005 4.674890515666501 13.317210016013501
O 3.2981389713955 1.9233506956665 1.0794400310135
O 3.2519797763955 1.8340491306665 13.315692566013501
O 1.6261211563954996 4.7828603606665006 1.0934016810135
O 1.5799619613954996 4.693558795666501 13.329654216013502
O -0.01153979875 -0.02232539125 3.05906313375
O -0.05769899375 -0.11162695625 15.29531566875
O 4.94162854625 2.87452083375 3.09791318375
O 4.89546935125 2.78521926875 15.33416571875
O 3.30105328125 -0.00365711125 3.07150733375
O 3.25489408625 -0.09295867625 15.30775986875
O 1.62903546625 2.85585255375 3.08546898375
O 1.58287627125 2.76655098875 15.32172151875
O -0.03461939625 -0.06697617375 9.17718940125
O -0.08077859125 -0.15627773875 21.41344193625
O 4.91854894875 2.82987005125 9.21603945125
O 4.87238975375 2.74056848625 21.45229198625
O 3.27797368375 -0.04830789375 9.18963360125
O 3.23181448875 -0.13760945875 21.42588613625
O 1.60595586875 2.81120177125 9.20359525125
O 1.55979667375 2.72190020625 21.43984778625
