20   
   
In 10.78760910817 -1.63955e-06 1.2925197027
In -0.33757609817 -8.59045e-06 5.1616481973
In 4.64744334317 1.65580215545 1.3142379827
In 5.80258816683 1.65579585455 5.1399222773
Al 9.07217304951 1.65579720297 4.4208215084
In 1.37785846049 1.65580080703 2.0333387516
In 2.9320087845100007 -7.24203e-06 4.4425474284
In 7.51802422549 -2.98797e-06 2.0116204716
O 8.62511122725 -9.14045e-06 5.746598862
O 1.82492178275 -1.08955e-06 0.7075690379999999
O 2.48494546225 1.65579465455 5.768317142
O 7.96508604775 1.65580335545 0.685843118
O 9.35599313707 -4.21701e-06 2.8035281343
O 1.0940398729299998 -6.01299e-06 3.6506397657
O 3.2158273720700006 1.65579957799 2.8252464143
O 7.23420413793 1.65579843201 3.628913845699999
O -1.31079011574 1.65579603876 4.827548193499999
O 11.76082162574 1.65580197124 1.6266120665
O 4.82937564926 -7.75624e-06 4.805829913499999
O 5.62065736074 -2.47376e-06 1.6483379865
