80   
   
Ga 10.62843938013 5.56745e-07 1.162918857445
Al 10.62842628513 2.960102356745 1.1629644074449998
Al 22.63459205013 9.61745e-07 1.196094662445
Al 22.634578955130003 2.960102761745 1.196140212445
Al -0.0132788901300001 7.68255e-07 4.395925487555
Al -0.01329198513 2.960102568255 4.395971037555
Ga 11.992873779870001 1.173255e-06 4.429101292555
Al 11.99286068487 2.960102973255 4.429146842555
Al 4.62535649763 1.480051254245 1.146353729945
Al 4.62534340263 4.440153054244999 1.1463992799449998
Al 16.63150916763 1.480051659245 1.179529534945
Ga 16.63149607263 4.440153459244999 1.179575084945
Al 5.98979089737 1.480051870755 4.412536165055
Al 5.98977780237 4.440153670755 4.412581715055
Al 17.99594356737 1.480052275755 4.445711970055
Ga 17.995930472369995 4.440154075754999 4.445757520055
Al 9.14294721249 1.480051871725 3.818532245445
Al 9.14293411749 4.440153671725 3.818577795445
Al 21.14909988249 1.480052276725 3.851708050445
Al 21.14908678749 4.440154076725 3.851753600445
Al 1.4722001825100002 1.480051253275 1.740357649555
Al 1.47218708751 4.440153053275 1.740403199555
Al 13.47835285251 1.4800516582749998 1.773533454555
Al 13.47833975751 4.440153458275 1.773579004555
Al 3.1398774249900003 7.69225e-07 3.801921567945
Al 3.1398643299900004 2.960102569225 3.801967117945
Al 15.14603009499 1.174225e-06 3.835097372945
Al 15.14601699999 2.960102974225 3.835142922945
Al 7.475283065010002 5.55775e-07 1.756922777055
Al 7.475269970010002 2.960102355775 1.756968327055
Al 19.48143573501 9.60775e-07 1.790098582055
Al 19.48142264001 2.960102760775 1.790144132055
O 9.32122467543 7.36975e-07 2.442153542715
O 9.32121158043 2.960102536975 2.442199092715
O 21.32737734543 1.141975e-06 2.475329347715
O 21.32736425043 2.960102941975 2.475374897715
O 1.29393581457 5.88025e-07 3.1166908022849995
O 1.29392271957 2.960102388025 3.116736352285
O 13.300088484570002 9.93025e-07 3.1498666072849995
O 13.30007538957 2.9601027930249995 3.149912157285
O 3.318141792930001 1.480051434475 2.425588415215
O 3.3181286979300006 4.440153234475 2.425633965215
O 15.32429446293 1.480051839475 2.458764220215
O 15.32428136793 4.440153639475 2.458809770215
O 7.29700560207 1.480051690525 3.133301479785
O 7.29699250707 4.440153490525 3.1333470297849995
O 19.303158272070004 1.480052095525 3.166477284785
O 19.303145177070004 4.440153895525 3.1665228347849994
O 8.787154439250001 1.156975e-06 4.945546797775
O 8.787141344250001 2.960102956975 4.945592347775
O 20.79330710925 1.561975e-06 4.978722602775
O 20.79329401425 2.960103361975 4.978768152775
O 1.82800605075 1.68025e-07 0.613297547225
O 1.8279929557500003 2.960101968025 0.613343097225
O 13.83415872075 5.73025e-07 0.646473352225
O 13.83414562575 2.960102373025 0.646518902225
O 2.7840715567500003 1.480051854475 4.928981670275
O 2.7840584617500004 4.440153654475 4.929027220275
O 14.790224226750004 1.480052259475 4.962157475275
O 14.790211131750004 4.440154059475 4.962203025275
O 7.831075838250001 1.480051270525 0.629908224725
O 7.831062743250001 4.440153070525 0.629953774725
O 19.83722850825 1.480051675525 0.663084029725
O 19.83721541325 4.440153475525 0.663129579725
O -0.98548912656 1.4800515851799998 4.10572720344
O -0.98550222156 4.44015338518 4.10577275344
O 11.02066354344 1.4800519901799998 4.13890300844
O 11.02065044844 4.440153790179999 4.13894855844
O 11.60063652156 1.48005153982 1.45316269156
O 11.60062342656 4.440153339819999 1.45320824156
O 23.60678919156 1.48005194482 1.48633849656
O 23.60677609656 4.44015374482 1.48638404656
O 5.01759375594 8.8768e-07 4.12229233094
O 5.01758066094 2.96010268768 4.12233788094
O 17.02374642594 1.29268e-06 4.15546813594
O 17.02373333094 2.9601030926800003 4.15551368594
O 5.597566734060001 4.3732e-07 1.43655201406
O 5.597553639060001 2.96010223732 1.43659756406
O 17.603719404059998 8.4232e-07 1.46972781906
O 17.603706309059998 2.96010264232 1.46977336906
