80   
   
Al 7.02405533 2.340428235 6.9974422025
Ga 2.33935406 7.0040983599999995 7.0175131125000005
In 7.001996940000001 7.022856674999999 2.3312830725
Al 7.013745570000001 7.014592829999999 7.0055307375
Al 2.32760543 7.012362205 2.3432654475000003
Al 7.012306700000001 2.34869208 2.3231945375
Al 2.34966382 2.329933765 7.0094245775
Ga 2.33791519 2.33819761 2.3351769125
In 7.013727198680001 4.36379926254 4.6638126171200005
Al 2.31727729868 9.03573323254 0.00963586212
Al 7.000576441320001 5.00774949246 -0.00933500712
Al 4.669876593160001 7.014039458959999 4.356549251280001
Ga 0.01754347316 2.32111654896 9.03469075628
Al -0.00291710316 7.002421106039999 5.00422930872
Al 4.36384607232 4.67154967354 7.008292459000001
Al 9.03679871232 0.01614339354 2.313973884
Al 5.009873077680001 -0.00118767354 6.998574321
Al 2.3379335613200003 4.98899117746 4.67689503288
Al 7.010886201320001 0.33358489746 -0.01742354212
In 2.3275870586800003 4.36156863754 0.00154732712
Ga 4.68178416684 2.33875098104 4.984158398720001
Al -0.01466573316 7.010684951039999 0.3299816437200001
Ga 0.00579484316 2.32938039396 4.3604430912800005
Al 4.98781468768 4.681240766459999 2.332415191
Al 0.33548156768 -0.01168214354 7.010556696
In 4.36240720232 0.00564892354 2.325956259
In 2.3482433213200005 0.31482658246 4.66880649788
Ga 4.67003553684 2.34701482604 0.3099107337200001
Al 0.3134231776800001 4.67074629646 2.344397566
In 7.0034174386800006 9.03796385754 4.67190115212
Al 4.68162522316 7.005775613959999 9.030796916280002
In 9.03823758232 4.68204414354 6.996310084
O 5.80359744264 3.65736769145 6.1240800258500006
O 3.5539972427200004 8.32338773513 7.89543722289
O 8.21803734248 5.709024424269999 1.44712812711
O 5.803519872160001 5.69219624915 7.88512374915
O 6.1292049873800005 5.80327051565 3.64957058143
O 7.90347350994 3.55535358577 8.315430376630001
O 1.4545748048600002 8.21973859863 5.70373097657
O 7.89189859782 5.80361339995 5.68303719037
O 3.656416056900001 6.13046345638 5.7973090452700005
O 8.32129175474 7.902410459699999 3.54472908023
O 5.7108698028600005 1.4565772509 8.21460498057
O 5.6905742855 7.89252493302 5.7951260189300005
O 3.5480633173600005 5.69542274855 3.21662762415
O 5.797663517280001 1.02940270487 1.44527042711
O 1.1336234175200002 3.64376601573 7.89357952289
O 3.5481408878400007 3.66059419085 1.45558390085
O 3.22245577262 3.54951992435 5.69113706857
O 1.4481872500600002 5.79743685423 1.02527727337
O 7.897085955139999 1.13305184137 3.63697667343
O 1.45976216218 3.54917704005 3.65767045963
O 5.695244703100001 3.22232698362 3.54339860473
O 1.03036900526 1.4503799803 5.79597856977
O 3.640790957140001 7.896213189099998 1.12610266943
O 3.6610864745 1.46026550698 3.54558163107
O 1.10714754264 8.329301661450002 1.4699032708500002
O 8.226949882720001 3.66798145513 3.20111864789
O 3.565704222480001 1.0161015142699998 6.12526963211
O 1.12768949216 1.0158010291499997 3.21476992415
O 1.47687186738 1.11034760565 8.327712086430001
O 3.20702360994 8.227287555769998 3.66125362163
O 6.127527444860001 3.56433231863 1.00941240157
O 3.21606821782 1.1272181799499998 1.01268336537
O 8.329368696899998 1.47505717638 1.10299047027
O 3.668958634740001 3.2094875496999995 8.22287058523
O 1.0144199028600005 6.1285112209 3.5604282255700004
O 1.0147439055 3.2161297130199995 1.12477219393
O 8.244513217360002 1.0234887785499998 7.87080437915
O 1.12471087728 5.68480898487 6.13958900211
O 5.7859565375200015 8.33668892573 3.21543801789
O 8.223971267840001 8.33698941085 6.125937725850001
O 7.87478889262 8.242442834349998 1.01299556357
O 6.144637150060001 1.12550288423 5.67945402837
O 3.22413331514 5.788458121370001 8.331295248430001
O 6.13559254218 8.225572260049999 8.32802428463
O 1.0222920631 7.87773326362 8.237717179729998
O 5.6827021252600005 6.1433028903 1.11783706477
O 8.337240857140001 3.2242792191 5.780279424430001
O 8.3369168545 6.13666072698 8.215935456070001
