80   
   
Al 6.9951201350000005 2.3315209725 6.96962615
Al 2.329241535 6.976296197500001 6.988909959999999
Al 6.97339659 6.994575737500001 2.3219619
Al 6.984753540000001 6.986739817500001 6.97735629
Al 2.317884585 6.984132117500001 2.33351557
Al 6.983763185 2.3393568925 2.31423176
Al 2.33960813 2.3210773525 6.98117982
Al 2.32825118 2.3289132725000004 2.32578543
Al 6.984963290960001 4.346493473540001 4.64526837548
Al 2.3077277409600003 8.99910461854 0.00915779548
Al 6.97219648404 4.987439156460001 -0.00907471548
Al 4.6505467899 6.985968810060001 4.33886911148
Al 0.0167583299 2.3124704250600003 8.998087031479999
Al -0.0034206699 6.97445950494 4.98355641852
Al 4.345606018660001 4.653198418840001 6.98005370456
Al 9.000127668659998 0.01625911384 2.30537550456
Al 4.989122246340001 -0.00060009384 6.97075226544
In 2.32804142904 4.969159616460001 4.65787334452
Al 6.98256307904 0.33222031146 -0.01680485548
In 2.31809433596 4.34388577354 0.00142765548
In 4.6624579301 2.3296842799400004 4.96427260852
Al -0.0147776199 6.98229542494 0.32816202852
In 0.0054013799 2.32030634506 4.34269264148
In 4.9673987013400005 4.662454671160001 2.32308801544
Al 0.3336102413400001 -0.01104371384 6.98230593544
In 4.34461566366 0.00581549384 2.31692917456
Al 2.3384080240400005 0.31394077146 4.65014320452
Al 4.6511009801 2.33752019994 0.30887821852
Al 0.3118866963400001 4.652011051160001 2.33464168544
Al 6.97459669596 9.001712318540001 4.652998515479999
In 4.6619037399000005 6.97813289006 8.994263501479999
In 9.001118023659998 4.663642038840001 6.96850003456
O 5.77962852731 3.64305049855 6.09959585836
O 3.53888638311 8.290310100030004 7.863300050599999
O 8.184617984490004 5.685992517370001 1.441563901
O 5.779378905090001 5.669779609050001 7.853394490039999
O 6.104058307660001 5.7800457078 3.63494537154
O 7.87086373714 3.5416315433200003 8.282285114419999
O 1.4481073034600005 8.186899426080004 5.68027066838
O 7.85948245174 5.7805560478 5.66035314566
O 3.641092033270001 6.10609749468 5.77379601734
O 8.28725486255 7.870664642 3.53055957278
O 5.68716747645 1.4513573896 8.181833560019998
O 5.666997427729999 7.86101319872 5.77166514986
O 3.53337619269 5.6726025914500005 3.2035458616399994
O 5.77411833689 1.02534298997 1.4398416693999998
O 1.12838673551 3.62966057263 7.861577818999998
O 3.53362581491 3.6458734809500006 1.4497472299599998
O 3.20894641234 3.5356073822000003 5.66819634846
O 1.44214098286 5.77402154668 1.02085660558
O 7.86489741654 1.1287536639200002 3.62287105162
O 1.45352226826 3.5350970422000003 3.64278857434
O 5.67191268673 3.20955559532 3.52934570266
O 1.02574985745 1.444988448 5.77258214722
O 3.62583724355 7.8642957004 1.12130815998
O 3.64600729227 1.45463989128 3.53147657014
O 1.10239297731 8.295661643550002 1.46348527836
O 8.193408033110002 3.65337079503 3.1886218506
O 3.55082952449 1.01249413237 6.100781821
O 1.12287654509 1.01195306405 3.20182363004
O 1.47026984766 1.1065473228000002 8.29416329154
O 3.19362818714 8.194242688320001 3.64617453442
O 6.102628953460001 3.5499601210800007 1.00559246838
O 3.20298009174 1.1227295028000002 1.00878228566
O 8.29561368327 1.46915818968 1.0991178173399998
O 3.65346640255 3.197166257 8.189777492779998
O 1.0099319264500002 6.103968534600001 3.54572298002
O 1.0104950677300002 3.20318665372 1.12009428986
O 8.210611742690002 1.01999144645 7.839656441639998
O 1.11959668689 5.662282294970001 6.1145198694
O 5.76217519551 8.303158957630004 3.2023598989999997
O 8.19012817491 8.303700025950002 6.10131808996
O 7.842734872340001 8.2091057672 1.00897842846
O 6.1193765328600005 1.1214104016800002 5.656967185579999
O 3.2103757665399995 5.765692968920001 8.297549251619998
O 6.110024628260001 8.192923587200001 8.294359434339999
O 1.01739103673 7.84649490032 8.204023902659998
O 5.65953831745 6.118486833 1.11336422722
O 8.30307279355 3.2116845554 5.75741873998
O 8.302509652269999 6.112466436280001 8.18304743014
