80   
   
Al 1.7174000904600002 7.731609239070002 6.719340505609999
Ga 7.02098949546 7.71280866407 6.691514130609999
Ga 3.66366437088 1.3441626057299998 1.88517037389
In 8.967253775879998 1.3253620307299998 1.85734399889
In 1.01831648424 3.18498762537 1.89310817111
In 6.32190588924 3.16618705037 1.86528179611
In 4.362747977100001 5.89078421943 6.71140270839
In 9.6663373821 5.87198364443 6.68357633339
Ga 0.970342527435 5.962364765135001 -0.024445311245
In 6.2739319324350005 5.943564190135001 -0.052271686245
In 4.3906428625650005 3.1010170798650005 4.811511171245
Al 9.694232267565 3.0822165048650003 4.783684796245
In 1.732975812945 1.442188898485 4.830867288505
Al 7.036565217945 1.423388323485 4.803040913505
Ga 3.6789716870550007 7.652639646514999 9.645145321495
Ga 8.982561092055 7.633839071515 9.617318946495
In 0.94287161583 0.3002505288 9.67369553805
In 6.24646102083 0.2814499538 9.64586916305
In 4.46897395995 8.7945151228 4.78293917845
In 9.77256336495 8.775714547800002 4.75511280345
Ga 1.80313668825 4.8146734195 4.80986806755
Ga 7.106726093250001 4.7958728445 4.78204169255
Ga 3.6087088875300006 4.2800922321 9.64676664895
Ga 8.91229829253 4.2612916571 9.61894027395
Ga 3.6780765670050006 1.435304233015 7.601495786394999
Al 8.981665972005 1.416503658015 7.573669411394999
Ga 1.712161074135 7.646128017785 2.747025508105
Ga 7.015750479135001 7.627327442785002 2.719199133105
In 4.358019599655001 5.950366343265 2.738614412645
Ga 9.661609004655 5.931565768265001 2.7107880376449995
Al 1.032218041485 3.131065907535001 7.609906881855
Al 6.335807446485 3.1122653325350007 7.582080506855
O 4.463535869145001 6.077957344255001 8.609371600215
O 9.767125274145 6.059156769255001 8.581545225215
O 0.937505739315 3.0101416069450004 3.793206405285
O 6.2410951443150005 2.991341031945 3.765380030285
O 3.5841302231550003 1.531974950105 3.784085362465
O 8.887719628155 1.513174375105 3.756258987465
O 1.8169113853050003 7.556124001095 8.618492643034998
O 7.120500790305001 7.537323426095 8.590666268035
O 2.816726839185 0.091507804055 6.079472428615
O 8.120316244185 0.072707229055 6.051646053615
O 2.557406775195 8.979987289545 1.207341692885
O 7.860996180195001 8.961186714545 1.179515317885
O 5.193818481435 4.600553730305 1.207686614865
O 10.497407886435001 4.581753155305001 1.179860239865
O 0.180315132945 4.470941363295 6.079127506635
O 5.483904537945 4.452140788295 6.051301131635
O 0.112113903495 7.501484692964999 1.147481558345
O 5.415703308495 7.4826841179649985 1.119655183345
O 5.261204317125001 1.569507253435 5.984309415155
O 10.564793722125 1.550706678435 5.956483040155
O 2.614324513845 2.9751422377150005 5.993667107095
O 7.917913918845001 2.9563416627150003 5.965840732095
O 2.758993706775 6.095849708685001 1.138123866405
O 8.062583111775 6.0770491336850005 1.110297491405
O 5.21425169439 7.57228215915 6.1298005381
O 10.517841099390001 7.55348158415 6.1019741631
O 0.16079923797 1.49977897505 1.3314146249
O 5.46438864297 1.48097840005 1.3035882499
O 2.818019478570001 3.03167672945 1.3124726436
O 8.121608883569998 3.01287615445 1.2846462686
O 2.55703145379 6.040384404750001 6.1487425194
O 7.86062085879 6.021583829750001 6.1209161444
O 1.964154500565 1.5617438765250002 8.375553770325
O 7.267743905565 1.5429433015250005 8.347727395325
O 3.4341351539550007 7.524656952875 3.503821110675
O 8.737724558954998 7.505856377875 3.475994735675
O 0.7772340626550001 6.083423789175001 3.522467280575
O 6.080823467655001 6.0646232141750005 3.494640905575
O 4.621055591865 3.0029770402250007 8.356907600425
O 9.924644996865002 2.9841764652250005 8.329081225425
O 4.47969855651 0.02165120837 8.69675964436
O 9.783287961510002 0.00285063337 8.66893326936
O 0.92205652149 9.06688799663 3.84146361564
O 6.22564592649 9.048087421630001 3.81363724064
O 3.557957588850001 4.54239109227 3.84228183586
O 8.86154699385 4.52359051727 3.81445546086
O 1.84379748915 4.546148112730001 8.695941424139999
O 7.147386894150001 4.527347537730001 8.668115049139999
