80   
   
Al 10.87760202775 7.37362e-06 1.193101570675
Ga 10.87759397275 3.13213322862 1.1931048406749998
Ga 23.18760122775 1.665362e-05 1.168759045675
Al 23.18759317275 3.13214250862 1.1687623156749998
Al -0.0904674377500002 -3.27362e-06 4.710501884325
Al -0.0904754927500001 3.13212258138 4.710505154325
Ga 12.219531762250002 6.00638e-06 4.686159359325
Ga 12.21952370725 3.13213186138 4.686162629325
In 4.72259840025 1.56606566112 1.2052744681749998
Al 4.72259034525 4.69819151612 1.205277738175
Ga 17.032597600249996 1.56607494112 1.1809319431749998
Ga 17.032589545249998 4.69820079612 1.180935213175
Ga 6.064528134749999 1.56606429388 4.698332256825
Ga 6.06452007975 4.69819014888 4.698335526825
Al 18.37452733475 1.56607357388 4.673989731825
Ga 18.37451927975 4.698199428880001 4.673993001825
Ga 9.30802017724 1.5660671785 4.046100513755
Ga 9.30801212224 4.6981930335 4.046103783755
Ga 21.61801937724 1.5660764585 4.021757988755
Ga 21.61801132224 4.6982023135 4.021761258755
In 1.47910635776 1.5660627765 1.857506211245
In 1.47909830276 4.698188631500001 1.857509481245
Al 13.78910555776 1.5660720565 1.833163686245
In 13.78909750276 4.6981979115 1.833166956245
In 3.15302460474 -3.89e-07 4.058270141255
In 3.15301654974 3.132125466 4.058273411255
In 15.463023804739997 8.891e-06 4.033927616255
Ga 15.46301574974 3.132134746 4.033930886255
In 7.63410998526 4.489e-06 1.845333313745
Ga 7.63410193026 3.132130344 1.845336583745
Ga 19.94410918526 1.3769e-05 1.820990788745
In 19.94410113026 3.132139624 1.820994058745
O 9.51487750383 5.4109e-06 2.570381125085
O 9.514869448830002 3.1321312659 2.570384395085
O 21.82487670383 1.46909e-05 2.546038600085
O 21.82486864883 3.1321405459 2.546041870085
O 1.2722570861699998 -1.3109e-06 3.3332223299149994
O 1.27224903117 3.1321245441 3.333225599915
O 13.58225628617 7.9691e-06 3.308879804915
O 13.58224823117 3.1321338241 3.3088830749149998
O 3.35987387633 1.5660636984 2.582554022585
O 3.359865821330001 4.6981895534 2.582557292585
O 15.669873076329997 1.5660729784 2.558211497585
O 15.669865021329997 4.6981988334 2.558214767585
O 7.42725265867 1.5660662566 3.3210527024149994
O 7.42724460367 4.6981921116 3.3210559724149995
O 19.73725185867 1.5660755366 3.296710177415
O 19.73724380367 4.6982013916000005 3.2967134474149997
O 8.9234998291 3.1386e-06 5.255545913825
O 8.9234917741 3.1321289936 5.255549183825
O 21.2334990291 1.24186e-05 5.231203388825
O 21.2334909741 3.1321382736 5.231206658825
O 1.8636347609 9.614e-07 0.6480575411749999
O 1.8636267059 3.1321268164 0.6480608111749999
O 14.1736339609 1.02414e-05 0.6237150161749999
O 14.1736259059 3.1321360964 0.6237182861749999
O 2.7684962016 1.5660614261 5.267718811325
O 2.7684881466 4.698187281099999 5.267722081325
O 15.0784954016 1.5660707061 5.243376286325
O 15.0784873466 4.6981965611 5.243379556325
O 8.0186303334 1.5660685288999998 0.635887913675
O 8.0186222784 4.6981943839 0.635891183675
O 20.3286295334 1.5660778088999998 0.611545388675
O 20.3286214784 4.6982036639 0.611548658675
O -1.08225243593 1.56605911588 4.40436812804
O -1.08226049093 4.698184970880001 4.40437139804
O 11.22774676407 1.56606839588 4.38002560304
O 11.22773870907 4.69819425088 4.38002887304
O 11.86937897093 1.56607083912 1.49923859696
O 11.86937091593 4.69819669412 1.4992418669599998
O 24.17937817093 1.56608011912 1.47489607196
O 24.17937011593 4.69820597412 1.4748993419599998
O 5.07275119157 8.2838e-07 4.39219523054
O 5.07274313657 3.13212668338 4.392198500539999
O 17.38275039157 1.010838e-05 4.36785270554
O 17.38274233657 3.13213596338 4.36785597554
O 5.71438339843 3.27162e-06 1.51140822446
O 5.71437534343 3.13212912662 1.51141149446
O 18.02438259843 1.255162e-05 1.48706569946
O 18.02437454343 3.13213840662 1.48706896946
