80   
   
In -0.0304298075 -0.046824445 6.0903804175
In -0.0912894225 -0.140473335 18.2711412525
Ga 4.8600639275 2.865554405 6.135809322499999
In 4.7992043125 2.7719055150000003 18.3165701575
In 3.2553675275 -0.00231101 6.1068112875
Ga 3.1945079125 -0.0959599 18.2875721225
Al 1.5742665925 2.82104097 6.1193784525
In 1.5134069775 2.72739208 18.3001392875
Al 0.0 0.0 0.0
In -0.060859615 -0.09364889 12.180760835
Al 4.890493735 2.91237885 0.045428905
Ga 4.82963412 2.81872996 12.22618974
Ga 3.285797335 0.044513435 0.01643087
Al 3.22493772 -0.049135455 12.197191705
Al 1.6046964 2.867865415 0.028998035
Al 1.543836785 2.774216525 12.209758870000002
Ga -0.0406805352655002 1.8734705352535 3.05904388991
In -0.1015401502655002 1.7798216452534998 15.239804724909996
Al -1.7217814702655003 4.6968225152535 3.07161105491
In -1.7826410852655004 4.6031736252535005 15.252371889909996
In 3.2451167997344994 1.9179839702535 3.07547475991
In 3.184257184734499 1.8243350802535 15.256235594909997
Ga 1.5640158647344993 4.7413359502535 3.08804192491
Al 1.503156249734499 4.6476870602535 15.268802759909997
Al 1.5845173202654996 0.9007459897465 9.15071498009
In 1.5236577052654996 0.8070970997464999 21.33147581509
In -0.0965836147345 3.7240979697465 9.16328214509
Al -0.1574432297345 3.6304490797465 21.34404298009
Ga 4.870314655265501 0.9452594247465 9.16714585009
In 4.809455040265501 0.8516105347465 21.34790668509
Al 3.1892137202655007 3.7686114047465 9.179713015090002
Ga 3.1283541052655006 3.6749625147465 21.36047385009
O -0.0506554261640002 1.8581214821825 5.055470590766499
O -0.1115150411640002 1.7644725921825 17.236231425766498
O -1.7317563611640003 4.681473462182501 5.0680377557665
O -1.7926159761640004 4.587824572182501 17.248798590766494
O 3.235141908835999 1.9026349171825 5.071901460766499
O 3.174282293835999 1.8089860271825 17.2526622957665
O 1.554040973835999 4.7259868971825005 5.084468625766499
O 1.493181358835999 4.632338007182501 17.2652294607665
O 1.5944922111639996 0.9160950428175 7.154288279233499
O 1.5336325961639996 0.8224461528174999 19.3350491142335
O -0.086608723836 3.7394470228175 7.166855444233498
O -0.147468338836 3.6457981328175 19.3476162792335
O 4.880289546164001 0.9606084778175 7.170719149233499
O 4.8194299311640005 0.8669595878174999 19.351479984233496
O 3.1991886111640007 3.7839604578175 7.183286314233499
O 3.1383289961640006 3.6903115678175 19.364047149233496
O 1.5745424293669996 0.8853969366754999 11.147141680946499
O 1.5136828143669996 0.7917480466754999 23.327902515946494
O -0.106558505633 3.708748916675499 11.159708845946499
O -0.167418120633 3.6151000266755 23.340469680946494
O 4.8603397643670005 0.9299103716755 11.1635725509465
O 4.7994801493670005 0.8362614816755 23.344333385946495
O 3.1792388293670006 3.7532623516755 11.1761397159465
O 3.1183792143670006 3.6596134616755 23.356900550946495
O -0.0307056443670002 1.8888195883245 1.0626171890535
O -0.0915652593670002 1.7951706983245 13.2433780240535
O -1.7118065793670003 4.712171568324501 1.0751843540534998
O -1.7726661943670003 4.6185226783245 13.2559451890535
O 3.2550916906329994 1.9333330233245 1.0790480590535
O 3.194232075632999 1.8396841333245 13.259808894053501
O 1.5739907556329993 4.756685003324501 1.0916152240535
O 1.513131140632999 4.6630361133245 13.272376059053501
O -0.01521490375 -0.0234122225 3.04519020875
O -0.07607451875 -0.1170611125 15.22595104375
O 4.87527883125 2.8889666275 3.09061911375
O 4.81441921625 2.7953177375 15.27137994875
O 3.27058243125 0.0211012125 3.06162107875
O 3.20972281625 -0.0725476775 15.242381913749997
O 1.58948149625 2.8444531925 3.07418824375
O 1.52862188125 2.7508043025 15.254949078749997
O -0.04564471125 -0.0702366675 9.13557062625
O -0.10650432625 -0.1638855575 21.31633146125
O 4.84484902375 2.8421421825 9.180999531249999
O 4.78398940875 2.7484932925 21.36176036625
O 3.24015262375 -0.0257232325 9.15200149625
O 3.17929300875 -0.1193721225 21.33276233125
O 1.55905168875 2.7976287475 9.16456866125
O 1.49819207375 2.7039798575 21.34532949625
