40   
   
In 3.5802135224053817 -0.0245713776140046 3.174676040999423
Ga 7.093093807594617 -0.1175293123859954 12.162737379000577
In -0.02244434125 -0.02279552 1.93779520125
Ga -0.15711038875 -0.15956864 13.56456640875
In 7.205315513844617 -0.0035517123859954 2.4737613727505767
Ga 3.467991816155382 -0.1385489776140046 12.863652047249422
In 11.691885801155385 1.5748552323859957 5.0075703172494235
In 9.823223738844618 1.5073566026140046 10.202515347750577
In 4.396792708844616 1.4872248676140043 10.284989442750575
In 6.2654547711553805 1.5547234973859954 5.090044412249422
In 7.137982596827691 -0.0719382738070023 8.287147129874711
Ga 3.5353247331723083 -0.0701624161929977 7.050266290125288
Ga -0.089777365 -0.09118208 7.751180804999999
In 5.42643103 0.020131735 -0.082474095
In 2.70768559 1.602090395 -0.02242683
In 8.13411662 1.6222221300000002 -0.104900925
O 5.45359553892769 -0.0254948226070023 3.817853973374711
O 5.219711791072308 -0.1166058673929977 11.519559446625289
O 3.6035556391009287 -0.000864034990363 1.1593688766758068
O 7.06975169089907 -0.141236655009637 14.178044543324193
O 8.052973596799072 1.512511956190363 3.7963242182241927
O 2.6097162772009295 1.402074446609637 11.577204819375806
O 8.035704913200929 1.5495681438096367 11.496235541775809
O 13.47896223279907 1.660005653390363 3.715354940624193
O -0.04578645615 -0.0465028608 3.95310221055
O -0.13376827385 -0.1358612992 11.54925939945
O 8.957035702227689 0.0183913949929977 1.1296690788747112
O 1.716271627772309 -0.1604920849929977 14.20774434112529
O 11.773028715827689 1.6845654057929975 1.1063451756747114
O 9.741638538700927 1.525008391809637 14.105245305075805
O 4.315649794172309 1.3775146942070025 14.186214584325286
O 6.34703997129907 1.537071708190363 1.1873144549241932
O 9.011364613349999 -0.0728617188 8.93032506225
O 1.66194271665 -0.0692389712 6.407088357749999
O 7.161324604994617 -0.0482309315859954 6.2718399672005765
O 3.5119827250053817 -0.0938697584140046 9.065573452799423
O 11.61074277975 1.4651450604 8.908795305449999
O 9.90480915425 1.4897048124 6.29978554215
O 4.4779357302500005 1.5969350396000002 6.38376445455
O 6.183869355750001 1.5723752876 8.992774217849998
