80   
   
In 0.002711545 -0.05391293 6.2439425875
In 0.008134635 -0.16173879 18.7318277625
In 5.191671595000001 2.900681765 6.2676254675
In 5.197094685000001 2.792855905 18.7555106425
Ga 3.44967053 -0.074329495 6.2427732125
Ga 3.45509362 -0.182155355 18.7306583875
Ga 1.74471261 2.92109833 6.2687948425
In 1.7501357000000002 2.81327247 18.7566800175
In 0.0 0.0 0.0
Ga 0.00542309 -0.10782586 12.487885175
In 5.18896005 2.954594695 0.02368288
In 5.19438314 2.846768835 12.511568055
Al 3.446958985 -0.020416565 -0.001169375
In 3.452382075 -0.128242425 12.4867158
In 1.7420010650000002 2.97501126 0.024852255
In 1.7474241550000005 2.8671854 12.51273743
In 0.0137022527285 1.9629908820305 3.1389275596205
In 0.0191253427285 1.8551650220305 15.626812734620499
In -1.6912556672715002 4.958418707030502 3.1649491896205
In -1.6858325772715002 4.8505928470305015 15.6528343646205
In 3.4606612377285 1.9425743170305 3.1377581846205
In 3.4660843277285 1.8347484570305 15.625643359620499
Ga 1.7557033177284995 4.938002142030501 3.1637798146205003
In 1.7611264077284998 4.830176282030501 15.6516649896205
In 1.7337219022714998 0.9041945179695 9.373809870379501
In 1.7391449922715 0.7963686579695 21.861695045379506
In 0.0287639822715001 3.8996223429695 9.3998315003795
Ga 0.0341870722715001 3.7917964829695 21.8877166753795
In 5.1806808872715004 0.8837779529694999 9.372640495379502
Ga 5.186103977271501 0.7759520929695 21.860525670379506
In 3.475722967271501 3.8792057779695 9.3986621253795
Al 3.4811460572715007 3.7713799179695 21.8865473003795
O 0.0145910971795 1.9453182235765 5.185691939803
O 0.0200141871795 1.8374923635765 17.673577114803003
O -1.6903668228205002 4.940746048576501 5.211713569803
O -1.6849437328205 4.832920188576502 17.699598744803
O 3.4615500821795 1.9249016585765 5.184522564803
O 3.4669731721795 1.8170757985765005 17.672407739803003
O 1.7565921621794998 4.920329483576501 5.210544194803
O 1.7620152521794998 4.812503623576501 17.698429369803
O 1.7328330578205 0.9218671764235 7.327045490196999
O 1.7382561478205 0.8140413164234999 19.814930665197
O 0.0278751378205001 3.9172950014235 7.353067120197
O 0.0332982278205001 3.8094691414235 19.840952295197
O 5.179792042820501 0.9014506114235 7.325876115196999
O 5.185215132820501 0.7936247514234999 19.813761290197
O 3.474834122820501 3.8968784364235 7.3518977451969985
O 3.4802572128205007 3.7890525764235 19.839782920197
O 1.7346107467224998 0.8865218595154999 11.420574250562
O 1.7400338367225 0.7786959995155 23.908459425562
O 0.0296528267225001 3.8819496845155 11.446595880562
O 0.0350759167225001 3.7741238245155 23.934481055562
O 5.181569731722501 0.8661052945154999 11.419404875562
O 5.186992821722501 0.7582794345155 23.907290050562
O 3.476611811722501 3.8615331195155 11.445426505562
O 3.4820349017225007 3.7537072595155 23.933311680562
O 0.0128134082775 1.9806635404845 1.092163179438
O 0.0182364982775 1.8728376804845 13.580048354438002
O -1.6921445117225002 4.976091365484502 1.118184809438
O -1.6867214217225002 4.8682655054845005 13.606069984438
O 3.4597723932775 1.9602469754845 1.090993804438
O 3.4651954832775 1.8524211154845 13.578878979438002
O 1.7548144732774995 4.955674800484501 1.117015434438
O 1.7602375632774998 4.847848940484501 13.604900609438
O 0.0013557725 -0.026956465 3.12197129375
O 0.0067788625 -0.134782325 15.60985646875
O 5.190315822500001 2.92763823 3.14565417375
O 5.1957389125 2.81981237 15.63353934875
O 3.4483147575000004 -0.04737303 3.12080191875
O 3.4537378475 -0.15519889 15.60868709375
O 1.7433568375 2.948054795 3.14682354875
O 1.7487799275000002 2.840228935 15.63470872375
O 0.0040673175 -0.080869395 9.36591388125
O 0.0094904075 -0.188695255 21.85379905625
O 5.1930273675 2.8737253 9.38959676125
O 5.198450457500001 2.76589944 21.87748193625
O 3.4510263025000003 -0.10128596 9.36474450625
O 3.4564493925 -0.20911182 21.85262968125
O 1.7460683825 2.894141865 9.39076613625
O 1.7514914725 2.786316005 21.87865131125
