60   
   
In -0.0009582615 0.00140870835 1.9289833314
Al 4.8956385685 0.01573857835 1.9302018114
Al -0.0042626115 0.00626632335 8.580649991399998
Al 4.8923342185 0.02059619335 8.5818684714
In -0.0056504385 0.00830652165 11.3743499886
Al 4.8909463915 0.02263639165 11.3755684686
Al -0.0023460885 0.00344890665 4.7226833286
Al 4.8942507415 0.01777877665 4.7239018086
Al 2.4409950798775495 1.42524469451259 6.363174073871489
Al 7.337591909877549 1.43957456451259 6.3643925538714905
Al 2.4376907298775494 1.43010230951259 13.014840733871491
Al 7.3342875598775485 1.44443217951259 13.016059213871488
Al 2.4429116028775497 1.42242727781259 2.50520741107149
Al 7.339508432877548 1.43675714781259 2.50642589107149
Al 2.4396072528775496 1.42728489281259 9.15687407107149
Al 7.336204082877549 1.44161476281259 9.158092551071489
Ga -0.01364108287755 2.8347550821874106 10.796159638928511
Al 4.882955747122449 2.84908495218741 10.797378118928508
Al -0.01033673287755 2.8298974671874104 4.14449297892851
Al 4.88626009712245 2.8442273371874105 4.145711458928512
Ga -0.01172455987755 2.8319376654874104 6.93819297612851
Al 4.884872270122449 2.8462675354874105 6.93941145612851
Al -0.00842020987755 2.8270800504874103 0.28652631612851
Al 4.88817662012245 2.8414099204874104 0.28774479612851
O 1.48201666449 0.00677075811 3.32620252944
O 6.37861349449 0.02110062811 3.32742100944
O 1.6961556413399996 2.96291339711 3.32446283981
O 6.592752471340001 2.97724326711 3.32568131981
O 9.04594404917 1.3137291372800002 3.32730531075
O 4.14934721917 1.2993992672800003 3.32608683075
O 0.7331148786599999 1.2942689628900002 9.97690421019
O 5.62971170866 1.3085988328900002 9.97812269019
O -1.72007669917 2.95778309272 9.97528021925
O 3.17652013083 2.9721129627200003 9.97649869925
O 3.40797146551 0.01727434189 9.97834927056
O 8.30456829551 0.03160421189 9.97956775056
O 3.9239700058675497 1.4306067442725898 7.760393271911489
O 8.82056683586755 1.44493661427259 7.7616117519114916
O 1.7022297627175498 0.13928225327259 7.76061985228149
O 6.598826592717551 0.15361212327259 7.7618383322814894
O 1.6947037305475496 2.7089053834425902 7.759059093221492
O 6.59130056054755 2.7232352534425903 7.760277573221489
O 3.1816769200375496 2.7083897190525903 1.10776163266149
O 8.07827375003755 2.7227195890525904 1.10898011266149
O 3.18920295220755 0.13876658888259 1.10932239172149
O 8.08579978220755 0.15309645888259 1.11054087172149
O 0.95993667688755 1.41706522805259 1.10798821303149
O 5.85653350688755 1.43139509805259 1.10920669303149
O 1.4693338431124496 2.84011713194741 12.19337883696851
O 6.365930673112449 2.85444700194741 12.19459731696851
O -0.7524064000375501 1.5487926409474102 12.19360541733851
O 4.14419042996245 1.5631225109474105 12.19482389733851
O -0.7599324322075497 4.1184157711174105 12.19204465827851
O 4.136664397792449 4.132745641117411 12.19326313827851
O 0.7270407572824499 4.11790010672741 5.540747197718511
O 5.62363758728245 4.13222997672741 5.54196567771851
O 0.7345667894524501 1.54827697655741 5.54230795677851
O 5.631163619452449 1.56260684655741 5.54352643677851
O -1.4946994858675502 2.8265756157274105 5.54097377808851
O 3.40189734413245 2.8409054857274105 5.5421922580885115
