60   
   
Ga -0.00089531865 0.00363592631 2.04413390103
In 5.101945536350001 0.03815151631 2.04627420103
Ga -0.00389974365 0.01583702131 8.903643636029999
Ga 5.09894111135 0.05035261131 8.905783936029998
Ga -0.00511353135 0.02076626369 11.67488556897
Ga 5.09772732365 0.05528185369 11.677025868969999
Ga -0.00210910635 0.00856516869 4.815375833969999
In 5.10073174865 0.04308075869 4.817516133969999
Ga 2.53864902846978 1.50193627800815 6.6155566262693695
Ga 7.641489883469779 1.5364518680081498 6.617696926269369
Ga 2.53564460346978 1.51413737300815 13.47506636126937
Ga 7.638485458469779 1.5486529630081498 13.477206661269369
Ga 2.54043966576978 1.49466442538815 2.5272888242093696
Ga 7.643280520769779 1.5291800153881498 2.5294291242093694
Ga 2.53743524076978 1.50686552038815 9.386798559209367
Ga 7.640276095769779 1.5413811103881498 9.38893885920937
Ga -0.02463986076978 2.9657255346118503 11.18485276579063
Ga 5.07820099423022 3.00024112461185 11.186993065790627
Ga -0.02163543576978 2.9535244396118503 4.32534303079063
Ga 5.08120541923022 2.98804002961185 4.3274833307906295
Ga -0.02284922346978 2.95845368199185 7.0965849637306295
Ga 5.07999163153022 2.9929692719918495 7.098725263730628
Ga -0.01984479846978 2.94625258699185 0.23707522873063
Ga 5.08299605653022 2.9807681769918495 0.23921552873063
O 1.5701727708400002 0.01673134922 3.4304140799
O 6.67301362584 0.05124693922 3.4325543799
O 1.74358937676 3.07580408434 3.42499537454
O 6.846430231760001 3.1103196743399995 3.42713567454
O -0.7964601301 1.36175397894 3.42697726806
O 4.3063807249 1.39626956894 3.42911756806
O 0.7722104282400001 1.38458587566 10.28714621546
O 5.87505128324 1.4191014656599998 10.28928651546
O -1.7905809199 3.0641203910599994 10.28302402194
O 3.3122599351 3.0986359810599997 10.28516432194
O 3.52665923416 0.04218643078 10.2907456901
O 8.62950008916 0.07670202078 10.2928859901
O 4.1097171179597805 1.5150317009181498 8.00183680513937
O 9.212557972959779 1.5495472909181498 8.00397710513937
O 1.76132506887978 0.13811666603815 8.00329597977937
O 6.8641659238797805 0.17263225603815 8.005436279779369
O 1.7430842170197798 2.86005433063815 7.99839999329937
O 6.845925072019781 2.8945699206381494 8.00054029329937
O 3.3177636253597806 2.8584840373581506 1.13954947069937
O 8.42060448035978 2.89299962735815 1.14168977069937
O 3.33600447721978 0.13654637275815 1.14444545717937
O 8.43884533221978 0.17106196275815 1.14658575717937
O 0.96937157627978 1.4815690024781498 1.14100864533937
O 6.07221243127978 1.51608459247815 1.14314894533937
O 1.5464282287202196 2.9788209575218496 12.571132944660627
O 6.64926908372022 3.0133365475218494 12.573273244660628
O -0.8019638203597801 1.60190592264185 12.57259211930063
O 4.300877034640219 1.63642151264185 12.574732419300629
O -0.8202046722197799 4.32384358724185 12.567696132820629
O 4.28263618278022 4.35835917724185 12.569836432820628
O 0.7544747361202198 4.32227329396185 5.70884561022063
O 5.857315591120221 4.356788883961849 5.7109859102206295
O 0.77271558798022 1.60033562936185 5.71374159670063
O 5.87555644298022 1.63485121936185 5.71588189670063
O -1.59391731295978 2.9453582590818495 5.71030478486063
O 3.50892354204022 2.9798738490818497 5.7124450848606285
