30   
   
Al -0.0005013981416 0.0008507756902 1.94685933600284
Al -0.0021970981416 0.0037280506902 8.531026891002838
Al -0.0028900018584 0.0049037743098 11.22147577399716
Ga -0.0011943018584 0.0020264993098 4.63730821899716
Al 2.4123790127243065 1.4019194384286524 6.3358424054452795
Al 2.4106833127243066 1.4047967134286523 12.920009960445277
Al 2.4133818090075065 1.4002178870482522 2.442123733439599
Al 2.4116861090075066 1.4030951620482524 9.026291288439598
Al -0.0075450590075071 2.7947408829517477 10.7249319165604
Al -0.0058493590075071 2.791863607951748 4.1407643615604
Al -0.0065422627243071 2.7930393315713475 6.8312132445547205
Al -0.0048465627243071 2.790162056571347 0.2470456895547209
O 3.3513786009524 0.0071592669264 3.2920100366316
O 0.737243286034 1.2848432423392 3.2916918021344
O -1.6819372869864 2.9015176232344 3.291270033734
O 1.6685934639659998 2.9101155276608 9.8753638478656
O -0.7450303730136 1.2851938867656 9.875891926266
O 1.4780344090476 0.0068425430736 9.8762187633684
O 0.9314546018183067 1.3999806696648522 7.681099416074038
O 3.150123696899907 2.685911905077652 7.680674871576838
O 3.1545193838795065 0.1216293259728525 7.681426253176438
O 1.6756371248319069 0.1162254203992525 1.0972912673080393
O 1.6712414378523073 2.680507999504052 1.096539885708439
O 3.8943062199135063 1.4021566558120524 1.0968667228108393
O -1.4884694699135068 2.7928021141879475 12.070188927189161
O 0.7301996251680928 4.078733349600745 12.069764382691961
O 0.734595312147693 1.5144507704959471 12.07051576429156
O -0.7442869468999068 1.5090468649223474 5.486380778423161
O -0.7486826338795067 4.073329444027147 5.485629396823561
O 1.4743821481816926 2.7949781003351477 5.485956233925961
