80   
   
In 1.71147121333 7.760363431159998 6.74302112152
In 7.0405920033300005 7.7491982411599984 6.71733824652
Ga 3.67849973087 1.35410745006 1.89325978396
In 9.00762052087 1.3429422600599998 1.86757690896
In 1.01774446037 3.1972106847199995 1.89988169802
In 6.34686525037 3.18604549472 1.87419882302
Al 4.3722264838300005 5.917260196499999 6.73639920746
In 9.701347273830002 5.906095006499999 6.71071633246
In 0.96630753191 5.98358846513 -0.024856870385
Al 6.295428321910001 5.97242327513 -0.050539745385
Al 4.40514765809 3.1181019898700004 4.830103235385
In 9.73426844809 3.10693679987 4.804420360385
Ga 1.73712120909 1.44990340815 4.8486099813650005
In 7.06624199909 1.43873821815 4.822927106365
Al 3.68132828091 7.684224676849999 9.680074303635
In 9.010449070910001 7.673059486849999 9.654391428635002
Al 0.94280471592 0.30342854535 9.70847606748
In 6.27192550592 0.29226335535 9.68279319248
In 4.47555078548 8.83063466439 4.80076134168
Al 9.804671575480002 8.819469474389999 4.77507846668
Al 1.80270200048 4.833697054190001 4.82715025598
In 7.131822790480001 4.822531864190001 4.80146738098
Al 3.61565350092 4.300366155549999 9.68208715318
Al 8.94477429092 4.289200965549999 9.65640427818
In 3.6903897035 1.4460522419699997 7.629918887625
Al 9.0195104935 1.4348870519699997 7.604236012625002
In 1.7080402147 7.6742574126499985 2.756580843455
Ga 7.0371610047 7.663092222649999 2.730897968455
In 4.3690968812 5.97670036727 2.749466293875
In 9.698217671199998 5.96553517727 2.723783418875
Al 1.029333037 3.14360928735 7.637033437205002
Al 6.358453827000001 3.13244409735 7.611350562205
O 4.47240916506 6.10536090035 8.641140636505
O 9.80152995506 6.09419571035 8.615457761505
O 0.93598354474 3.02182553183 3.806727933615
O 6.265104334740001 3.0106603418300004 3.781045058615
O 3.5974923052400007 1.54258777037 3.798874430755
O 8.926613095239999 1.53142258037 3.773191555755
O 1.81090040456 7.5845986618099985 8.648994139364998
O 7.14002119456 7.573433471809999 8.623311264365
O 2.8275173647000003 0.09641127599 6.102281834825
O 8.156638154699998 0.08524608599 6.0765989598250005
O 2.5560623547 9.01364808755 1.211611513535
O 7.885183144700002 9.002482897549998 1.185928638535
O 5.2115431952 4.62348654049 1.213610721075
O 10.540663985200002 4.61232135049 1.187927846075
O 0.1720365242 4.48657282305 6.100282627285
O 5.5011573142 4.47540763305 6.074599752285001
O 0.1012015279 7.526676133789999 1.150687646755
O 5.4303223179 7.51551094379 1.125004771755
O 5.2816262827000005 1.5828642276699998 6.007630694885
O 10.610747072700002 1.5716990376699995 5.981947819885
O 2.6199668242 2.98932889449 6.015730515505
O 7.9490876142 2.97816370449 5.990047640505
O 2.7628609864 6.120211466970001 1.142587826135
O 8.0919817764 6.109046276970001 1.116904951135
O 5.22561687503 7.605534396309999 6.15288022226
O 10.55473766503 7.594369206309999 6.12719734726
O 0.15880874177 1.5051088445699998 1.33603500866
O 5.487929531770001 1.49394365457 1.31035213366
O 2.82657146927 3.04595451067 1.31795931876
O 8.155692259270001 3.03478932067 1.29227644376
O 2.55785414753 6.06468873021 6.17095591216
O 7.88697493753 6.05352354021 6.14527303716
O 1.96771200149 1.57048861509 8.405991468445
O 7.29683279149 1.55932342509 8.380308593445001
O 3.43814301611 7.55494618507 3.516811453995
O 8.767263806110002 7.543780995069999 3.491128578995
O 0.7705686611100001 6.1050668872700005 3.534579246695
O 6.099689451110001 6.09390169727 3.508896371695
O 4.63528635649 3.02036791289 8.388223675744998
O 9.96440714649 3.00920272289 8.362540800745
O 4.49745868769 0.02895640499 8.72959245478
O 9.82657947769 0.01779121499 8.703909579780001
O 0.91159194231 9.098684154010002 3.854404246220001
O 6.24071273231 9.08751896401 3.82872137122
O 3.56677138681 4.56297641767 3.85689608928
O 8.895892176809998 4.551811227669999 3.83121321428
O 1.8422792431900004 4.56466414133 8.727100611720001
O 7.17140003319 4.55349895133 8.70141773672
