40   
   
In -0.8885508449999999 -0.08420916 13.329953035
In -0.126935835 -0.01202988 1.904279005
In 2.749478392902524 -0.1147293089730057 11.850152255541266
Al 6.895251057097476 -0.0971299410269943 2.753235754458734
In 6.2605718820974765 -0.1572793410269943 12.274630779458734
In 3.384157567902524 -0.0545799089730057 2.3287572305412665
In 5.330108065 -0.057810105 -0.315422015
In 4.096802962097476 1.4678865989730057 4.717327614458733
Ga 5.535010032902524 1.4165368860269942 9.690264090541266
Al 10.865118097902522 1.358726781026994 9.374842075541265
Al 9.426911027097475 1.4100764939730055 4.4019055994587335
In 1.4382071570974757 -0.0513497160269943 4.9729367744587325
Al 8.206522292902523 -0.1605095339730057 9.630451235541264
In 3.003350052747657 -0.0906695499353961 8.041594397883587
Al 6.641379397252344 -0.1211897000646039 6.561793612116412
In -0.50774334 -0.04811952 7.61711602
O 10.644829732297476 1.3960468745730057 13.202771931658734
O 9.646682734502525 1.496607709826994 0.5661438911412666
O 4.317091327702524 1.430566505426994 0.8893977583412666
O 5.315238325497476 1.3300056701730054 13.526025798858734
O -0.7565375766 -0.0716980848 11.3495028698
O -0.2589491034 -0.0245409552 3.8847291702
O 7.879890095097477 -0.1839588930269943 13.468605458058734
O 1.7648393549025243 -0.0279003569730057 1.1347825519412666
O 2.6174651143476573 -0.1272403851353961 13.830602573083585
O 7.027264335652343 -0.0846188648646039 0.7727854369164132
O 7.193505652052343 1.327867074335396 10.835271154916414
O 2.4388240011476574 1.4327051012646037 3.5801524022835864
O 7.768415407947658 1.4987463056646038 3.2568985350835864
O 12.52309705885234 1.3939082787353958 10.512017287716414
O 4.641253679252342 -0.1305997880646039 11.080655948516414
O 5.003475770747658 -0.0812594619353961 3.522732061483586
O 3.8765145102 1.5052066956 8.545257172199998
O 5.7547818266 1.5030680987999998 5.8545026806
O 11.0854065498 1.3214066844 5.5469125178
O 9.2071392334 1.3235452812 8.237667009399999
O 3.135363331302524 -0.0781584737730057 6.061144080341267
O 6.509366118697477 -0.1337007762269943 8.542243929658737
O 1.111574873 -0.074799072 8.8110906986
O 8.533154576999998 -0.137060178 5.7922973114
