80   
   
Ga 10.855609107245 6.24414e-06 1.1993341602149998
Al 10.855601282245 3.13643301914 1.199339050215
Al 23.145246212245 1.430414e-05 1.176852795215
Al 23.145238387244998 3.13644107914 1.176857685215
In -0.105830642245 -3.46414e-06 4.728280674785
Ga -0.105838467245 3.13642331086 4.728285564785001
Ga 12.183806462755 4.59586e-06 4.705799309785
Al 12.183798637754998 3.13643137086 4.705804199785001
Ga 4.710786642244999 1.56821560164 1.2105772877149998
Ga 4.710778817244999 4.70464237664 1.210582177715
Ga 17.000423747244998 1.5682236616399998 1.188095922715
Al 17.000415922244997 4.70465043664 1.188100812715
Ga 6.038983997755 1.56821395336 4.717042437285
Al 6.038976172755 4.70464072836 4.717047327285
Al 18.328621102755005 1.56822201336 4.694561072285
Ga 18.328613277755004 4.704648788359999 4.694565962285
In 9.279237865765 1.56821654388 4.062861610235
In 9.279230040765 4.70464331888 4.062866500235001
Ga 21.568874970765 1.56822460388 4.040380245235
Ga 21.568867145764997 4.70465137888 4.040385135235001
In 1.470532774235 1.56821301112 1.864758114765
In 1.470524949235 4.70463978612 1.864763004765
Ga 13.760169879235 1.56822107112 1.842276749765
Ga 13.760162054235 4.70464784612 1.842281639765
In 3.134423225765001 -8.7362e-07 4.074099847735
Al 3.134415400765001 3.13642590138 4.074104737735
In 15.424060330764998 7.18638e-06 4.051618482735
Ga 15.424052505764996 3.13643396138 4.051623372735
In 7.615355239235002 3.65362e-06 1.853514987265
In 7.615347414235 3.13643042862 1.853519877265
In 19.904992344235 1.171362e-05 1.831033622265
Ga 19.904984519235 3.13643848862 1.831038512265
O 9.490611660155 4.35826e-06 2.581599950545
O 9.490603835155 3.13643113326 2.581604840545
O 21.780248765155 1.241826e-05 2.559118585545
O 21.780240940155 3.13643919326 2.559123475545
O 1.2591668048450002 -1.57826e-06 3.346014884455
O 1.2591589798450002 3.13642519674 3.346019774455
O 13.548803909845 6.48174e-06 3.323533519455
O 13.548796084845002 3.13643325674 3.323538409455
O 3.345789195155 1.56821371576 2.592843078045
O 3.345781370155 4.704640490759999 2.592847968045
O 15.635426300155002 1.56822177576 2.570361713045
O 15.635418475155001 4.70464855076 2.570366603045
O 7.403981444845 1.56821583924 3.3347766469549995
O 7.403973619845002 4.70464261424 3.334781536955
O 19.693618549845006 1.56822389924 3.312295281955
O 19.693610724845005 4.70465067424 3.312300171955
O 8.891372793075 2.0309e-06 5.276813678225
O 8.891364968074999 3.1364288059 5.276818568225
O 21.181009898075 1.00909e-05 5.254332313225
O 21.181002073075003 3.1364368659 5.254337203225
O 1.8584056719250004 7.491e-07 0.650801156775
O 1.8583978469250004 3.1364275241 0.650806046775
O 14.148042776925 8.8091e-06 0.628319791775
O 14.148034951925 3.1364355841 0.628324681775
O 2.7465503280750005 1.5682113884 5.288056805725
O 2.7465425030750006 4.7046381634 5.288061695725
O 15.036187433075005 1.5682194483999998 5.265575440725
O 15.036179608075 4.7046462234 5.265580330725
O 8.003220311925 1.5682181666 0.639562919275
O 8.003212486925001 4.7046449416 0.639567809275
O 20.292857416925 1.5682262265999998 0.617081554275
O 20.292849591925 4.7046530016 0.617086444275
O -1.0949603336 1.5682094967 4.42083399614
O -1.0949681586 4.704636271699999 4.42083888614
O 11.1946767714 1.5682175567 4.39835263114
O 11.1946689464 4.704644331699999 4.39835752114
O 11.8447309736 1.5682200583 1.50678572886
O 11.8447231486 4.704646833299999 1.50679061886
O 24.1343680786 1.5682281183 1.48430436386
O 24.1343602536 4.704654893299999 1.48430925386
O 5.0498621314 1.392e-07 4.40959086864
O 5.0498543064 3.1364269142 4.40959575864
O 17.3394992364 8.1992e-06 4.38710950364
O 17.3394914114 3.1364349742 4.38711439364
O 5.6999163336 2.6408e-06 1.51802396636
O 5.6999085086 3.1364294158 1.51802885636
O 17.989553438599998 1.07008e-05 1.49554260136
O 17.989545613599997 3.1364374758 1.49554749136
