40   
   
Al 8.353914856118646 -0.0226995028541584 13.770074538399092
Al 6.74196083513135 0.0157880916041584 2.340791422850908
Al 5.06872662 0.018913505 -0.05175403
In 9.270859205131348 1.5067032516041583 2.320762117850908
Ga 4.2021325851313485 1.4877897466041583 2.372516147850908
In 5.03195856375 -0.00230380375 5.37028865375
Al 1.66097819638135 -0.0101978496458416 4.199893014100908
Ga 8.415194949868646 0.0126626783958416 4.733336732149092
In 2.479874295 1.462625415 7.20936094
Al 7.548600914999998 1.48153892 7.15760691
Ga 8.378426893618649 -0.0085546303541584 10.155379415899093
Al 5.00744652625 -0.01644867625 8.98498377625
Ga 3.2974442548686493 -0.0345405716041584 12.014481007149092
Ga 1.62421014013135 -0.0314151583958416 9.621935697850908
Al 5.826342624868649 1.4563745883958414 11.99445170214909
Al 10.895069244868647 1.4752880933958414 11.942697672149091
O 3.43840000885 0.00805192675 1.1938036012500002
O 1.60018834338135 -0.0452771334458416 13.16433691790091
O 5.86614244405 1.43933048035 1.17457546845
O 10.93443186885 1.57676065795 1.1232892552500002
O 8.439216746618646 0.0265246534458416 1.190935512099092
O 6.60100508115 -0.02680440675 13.16146882875
O 9.23105938595 1.5237473596499995 13.14063835155
O 4.16276996115 1.3863171820499998 13.19192456475
O 6.784868338718649 0.0018011001458416 5.9788943633990925
O 5.04470482325 0.00505152995 3.49064719005
O 9.212610773918648 1.4330796537458417 5.959666230599092
O 4.143446958718648 1.5326828213458414 6.011888077399092
O 1.64823193688135 -0.0175531833458416 6.079534477800909
O 10.045521561018647 0.0235242566458416 3.487779100899092
O 12.675575865818647 1.5740760230458417 3.466948623699092
O 7.607286441018649 1.4366458454458415 3.518234836899092
O -0.0061164710186497 -0.0422767366458416 10.86749332910091
O 8.391173153118649 -0.0011992966541584 8.27573795219909
O 2.4216259641813505 1.3890018169541585 10.84826519630091
O 7.48991538898135 1.5264319945541585 10.796978983100908
O 4.99470026675 -0.02380400995 10.86462523995
O 3.2545367512813494 -0.0205535801458416 8.376378066600909
O 5.88459105608135 1.5299981862541585 8.35554758940091
O 10.953754871281348 1.4303950186541583 8.303325742600908
