10   
   
In 0.020814925 -0.068665575 6.34615961
In 0.0 0.0 0.0
In 0.0242380926319999 2.021415263802 3.194889183844
In 1.818631197368 0.9138639761979998 9.524876516156
O 0.0104074625 -0.0343327875 3.173079805
O 0.0312223875 -0.1029983625 9.519239415
O 0.0310612250469999 1.998906688317 5.275160304002
O 1.811808064953 0.9363725516829998 7.444605395997998
O 1.825454329783 0.8913554007129998 11.605147636314
O 0.0174149602169999 2.043923839287 1.114618063686
