80   
   
Al -0.0403770625 -0.0570044 6.0650278475
Al -0.1211311875 -0.1710132 18.1950835425
Al 4.7720999475 2.92450272 6.122753277499999
Al 4.691345822500001 2.81049392 18.2528089725
Al 3.2264463925 0.04460169 6.0870148225
In 3.1456922675 -0.06940711 18.2170705175
Al 1.5052764925 2.82289663 6.1007663025
Al 1.4245223674999998 2.70888783 18.2308219975
Al 0.0 0.0 0.0
In -0.080754125 -0.1140088 12.130055695
Al 4.81247701 2.98150712 0.05772543
In 4.731722885 2.86749832 12.187781125
Al 3.266823455 0.10160609 0.021986975
In 3.18606933 -0.01240271 12.15204267
Al 1.545653555 2.87990103 0.035738455
Al 1.46489943 2.76589223 12.16579415
In -0.0786881290385001 1.857374516801 3.0490089190855
Al -0.1594422540385001 1.743365716801 15.179064614085501
In -1.7998580290385002 4.635669456801 3.0627603990855
In -1.8806121540385 4.521660656801 15.1928160940855
In 3.1881353259615 1.958980606801 3.0709958940855
Al 3.1073812009615 1.844971806801 15.2010515890855
In 1.4669654259615 4.737275546801 3.0847473740855
In 1.3862113009615 4.623266746801 15.214803069085502
In 1.5435875590384998 0.908517713199 9.116785230914498
In 1.4628334340385 0.7945089131989999 21.246840925914498
Al -0.1775823409615002 3.686812653199 9.1305367109145
Ga -0.2583364659615002 3.5728038531989994 21.260592405914498
In 4.8104110140385 1.010123803199 9.1387722059145
In 4.729656889038499 0.8961150031989998 21.268827900914495
Al 3.0892411140385 3.7884187431989993 9.152523685914499
Al 3.0084869890384995 3.674409943198999 21.282579380914495
O -0.0919237301260001 1.838688474481 5.037125047496
O -0.1726778551260001 1.724679674481 17.167180742495997
O -1.813093630126 4.616983414481 5.050876527496
O -1.893847755126 4.502974614481 17.180932222495997
O 3.174899724874 1.940294564481 5.059112022496
O 3.094145599874 1.826285764481 17.189167717495998
O 1.453729824874 4.718589504481 5.072863502496
O 1.372975699874 4.604580704481 17.202919197495998
O 1.556823160126 0.927203755519 7.128669102504
O 1.4760690351259995 0.8131949555189999 19.258724797504
O -0.1643467398740002 3.705498695519 7.142420582503999
O -0.2451008648740002 3.591489895519 19.272476277504
O 4.823646615125999 1.0288098455189998 7.150656077503999
O 4.742892490126 0.914801045519 19.280711772504
O 3.1024767151259995 3.807104785519 7.164407557503999
O 3.021722590126 3.6930959855189993 19.294463252504
O 1.530351957951 0.8898316708789998 11.104901359325002
O 1.4495978329509998 0.7758228708789999 23.234957054324997
O -0.1908179420490002 3.668126610879 11.118652839325
O -0.2715720670490002 3.554117810879 23.248708534324997
O 4.797175412950999 0.9914377608789998 11.126888334325
O 4.716421287951 0.8774289608789999 23.256944029325
O 3.076005512951 3.769732700878999 11.140639814325
O 2.995251387951 3.655723900879 23.270695509324998
O -0.0654525279510001 1.876060559121 1.060892790675
O -0.1462066529510001 1.762051759121 13.190948485675
O -1.786622427951 4.654355499121 1.074644270675
O -1.867376552951 4.540346699121 13.204699965675
O 3.201370927049 1.977666649121 1.082879765675
O 3.120616802049 1.863657849121 13.212935460675
O 1.480201027049 4.755961589120999 1.0966312456749998
O 1.399446902049 4.641952789121 13.226686940675
O -0.02018853125 -0.0285022 3.03251392375
O -0.10094265625 -0.142511 15.162569618749997
O 4.792288478750001 2.95300492 3.09023935375
O 4.71153435375 2.83899612 15.22029504875
O 3.24663492375 0.07310389 3.05450089875
O 3.16588079875 -0.04090491 15.18455659375
O 1.5254650237499998 2.85139883 3.06825237875
O 1.44471089875 2.7373900300000003 15.198308073749997
O -0.06056559375 -0.0855066 9.09754177125
O -0.14131971875 -0.1995154 21.22759746625
O 4.7519114162500005 2.89600052 9.15526720125
O 4.67115729125 2.78199172 21.28532289625
O 3.20625786125 0.01609949 9.11952874625
O 3.12550373625 -0.09790931 21.24958444125
O 1.48508796125 2.79439443 9.13328022625
O 1.40433383625 2.68038563 21.26333592125
