40   
   
Ga 8.117348757413373 -0.0727341451561989 13.7061560802946
Al 5.00522543 -0.00860135 -0.05924888
Ga 9.139738822586628 1.4580415464061989 2.298507495955399
Ga 4.1345133925866255 1.4666428964061988 2.357756375955399
Ga 4.91730185 -0.03145296125 5.34267017875
Ga 1.6000235025866267 -0.0206405923438011 4.181743022205399
Ga -0.11723144 -0.030468815 7.202558745
Ga 8.263888057413373 -0.0346481264061989 4.702957649044601
Ga 2.38795059 1.44919747 7.179211785000001
Ga 7.3931760199999985 1.44059612 7.119962905
Ga 8.175964477413373 -0.0574997376561989 10.1048767077946
Al 4.858686130000001 -0.04668736875 8.94394955125
Ga 3.1414311874133736 -0.0565155914061989 11.9647652740446
Ga 1.5120999225866267 -0.0434922035938011 9.5836620809554
Ga 5.646613217413373 1.423150693593801 11.9414183140446
Ga 10.651838647413374 1.414549343593801 11.8821694340446
O 3.3836239476000003 -0.01102861655 1.1841457482500002
O 1.4546565169866266 -0.0584219229438011 13.112915866005402
O 5.7885986964 1.40945101705 1.16173266665
O 10.7940296716 1.5195670238500003 1.10298598505
O 8.321331463013374 -0.0197184070561989 1.1737038639946007
O 6.392364032400001 -0.06711171345 13.10247398175
O 8.997753343600001 1.47174122295 13.078193143350001
O 3.9923223684 1.3616252161499998 13.13693982495
O 6.642286575013372 -0.0370753929561989 5.946352277294601
O 4.9477820244 -0.02353106935 3.47000490505
O 9.047261323813377 1.383404240643801 5.923939195694601
O 4.042241439013373 1.510722947443801 5.983690274094601
O 1.569543328186627 -0.0285624842438011 6.054408295905399
O 9.885489539813374 -0.0322208598561989 3.459563020794601
O 12.490878851013374 1.5066320765438013 3.4352821823946007
O 7.4854478758133745 1.3965160697438008 3.494028863994601
O -0.1095015598133734 -0.0459194701438011 10.8270567092054
O 8.206444651813372 -0.0495778457561989 8.232211434094602
O 2.2954731889866267 1.3745601634561988 10.8046436276054
O 7.300904164186627 1.484676170256199 10.745896946005399
O 4.8282059556000005 -0.05460926065 10.81661482495
O 3.1337014049866267 -0.0410649370438011 8.3402674527054
O 5.7390907161866265 1.497787999356199 8.3159866143054
O 10.744110600986627 1.3704692925561988 8.2562355359054
