40   
   
Ga 12.121932645352553 2.053032938968149 2.978722440731266
Ga 8.560839857914289 1.977428911378264 11.698689162753329
Ga 5.1859928009702365 2.038615032707441 1.8167226456244807
In 5.074245298470236 1.9565409052074407 12.97788276812448
In 8.653962776664287 2.045824017628264 2.397722394003329
Al 12.028809726602551 1.9846378327181489 12.279689209481264
Ga 9.50266177160255 0.5045465627181486 4.856869599481265
Ga 0.7675510016642862 0.4386476826282635 9.915046519003328
Ga 6.89204091160255 2.021701022718149 4.897512699481266
Ga 3.3681972916642864 1.973455037628264 9.897092714003328
Ga 8.59808902392432 2.0047869527839417 7.978302604068797
Al 12.084683479342516 2.0256748975624705 6.699108999415797
Ga 5.1301190497202365 1.9975779689574409 7.39730270687448
In 7.815238244720239 0.5351395939574409 -0.0841138081255192
In 2.6039710947202375 0.5174866989574409 -0.0255169031255192
In 10.415884534720238 2.069946948957441 -0.1020676131255192
O 7.812283107824322 0.5687561476839419 3.661138666568797
O 2.4575306826425165 0.4965165702624704 11.111685023715799
O 12.141302213942515 2.0672591221624708 1.044121204015798
O 8.541470289324318 1.9632027281839417 13.633290399468798
O 2.60141494062432 0.4290247800839418 3.7188279997687967
O 7.669196815442516 0.3920909926624703 11.052180546915796
O 10.308903546224322 2.0421712084839414 3.6439030137687967
O 10.373868957042514 1.9882906418624704 11.033508589715796
O 5.166623285883162 2.024388881303588 3.751323733165405
O 5.093614917583162 1.970767118003588 11.043281679865405
O 4.29434986252432 0.4532771753839419 1.1702140290687972
O 5.9762618935425165 0.3678385973624704 13.600794517615796
O 9.50521802972432 0.5930085429839418 1.112524695868797
O 11.187130060742515 0.5075699649624703 13.543105184415795
O 6.99902200412432 2.0494768245839423 1.1515420718687972
O 13.683750499142516 1.9809850257624708 13.525869531615797
O 4.288439434383164 0.520510130803588 8.660718830265404
O 5.9813743562831645 0.544762526103588 6.112104859565404
O 8.617458592514284 2.0190131359782635 6.0437013673533295
O 12.06531391075255 2.0114487143681488 8.633710236131266
O 9.500105567183162 0.4160845532035879 8.601214353465403
O 0.7705061890831638 0.405031158503588 6.169794192765404
O 6.785059872783164 1.993925191603588 8.643483177465404
O 3.475178330683163 2.001230807703588 6.1511222355654045
