40   
   
Ga 0.9528187879 5.76802585422 -0.01675382776
Ga 4.2377497121 2.98277313078 4.66787045776
Ga 1.67323320034 1.38529246062 4.68457458224
Ga 3.51733529966 7.36550652438 -0.03345795224
Ga 3.54633671164 1.36964423926 7.37038726061
Ga 1.67232970828 7.392427296399998 2.67176503619
Ga 4.21514973824 5.74303013526 2.66179305061
Al 1.00351668168 3.0190414004 7.38035924619
Ga 1.67754640274 7.4707849796199985 6.52243937593
Ga 3.53230882278 1.2877516098399997 1.82914424487
Ga 0.99042701906 3.0775542988199995 1.83882511093
Ga 4.219428206460001 5.68098229064 6.51275850987
Ga 0.90871354488 0.27710586171 9.3776226027
Ga 4.33070813296 8.493292436109998 4.6467581309
Ga 1.75118000136 4.64932332051 4.6681201677
Ga 3.4882416764800004 4.12107497731 9.3562605659
O 4.31702211588 5.85975414548 8.352781945169998
O 0.912021933 2.90648077126 3.68048457003
O 3.4562493023200003 1.46769190188 3.67007590517
O 1.77279474656 7.29854301486 8.363190610029998
O 2.71273123708 0.07328873752 5.89341050057
O 2.49046664156 8.682577003699999 1.18085456503
O 5.01592948608 4.43567757752 1.17626829057
O 0.18726839256 4.320188163699999 5.89799677503
O 5.0446395839800005 7.306539346969998 5.95096940165
O 0.1594394141 1.44967988887 1.29235253155
O 2.7231349779 2.92430572217 1.27590313665
O 2.4809440201799995 5.83191351367 5.96741879655
O 0.13102945676 7.259071502619999 1.12098990451
O 5.0713852046 1.4964800211599998 5.80300238989
O 2.5266887221600003 2.86506612662 5.81355661451
O 2.6757259392 5.89048539716 1.11043567989
O 1.8961511181 1.4964096984400002 8.1207773838
O 3.33024957246 7.268764734439999 3.4053185286
O 0.7671404000600001 5.881892356039999 3.4215859738
O 4.4592602905 2.88328207684 8.104509938599998
O 4.313946004659999 -0.00227973231 8.43049353503
O 0.91578335934 8.76878958931 3.73426165497
O 3.4403079776200003 4.38148463529 3.72996650003
O 1.78942138638 4.38502522171 8.43478868997
