80   
   
Al -0.00372938 -0.0646644725 6.234536215
In -0.01118814 -0.1939934175 18.703608645
In 5.13862382 2.9623394025 6.26813128
In 5.131165060000001 2.8330104574999995 18.73720371
In 3.4408804450000003 -0.0354029125 6.237056885
In 3.4334216850000003 -0.1647318575 18.706129315
In 1.6940139950000002 2.9330778425 6.26561061
In 1.6865552350000002 2.8037488975 18.73468304
In 0.0 0.0 0.0
In -0.00745876 -0.129328945 12.46907243
Al 5.1423532000000005 3.027003875 0.033595065
In 5.134894440000001 2.8976749299999995 12.502667495
In 3.444609825 0.02926156 0.00252067
In 3.437151065 -0.100067385 12.4715931
In 1.6977433750000002 2.997742315 0.031074395
In 1.6902846150000002 2.86841337 12.500146825000002
In -0.0182374108974997 1.956209912981 3.1371421598960003
In -0.0256961708974997 1.826880967981 15.606214589896
Al -1.7651038608975 4.924690667981 3.165695884896
Al -1.7725626208975 4.795361722981 15.634768314896
In 3.4263724141025 1.985471472981 3.1396628298960003
Al 3.4189136541025 1.856142527981 15.608735259896
In 1.6795059641024996 4.953952227981 3.168216554896
Al 1.6720472041024996 4.824623282981 15.637288984896
Al 1.7085220258975002 0.912203457019 9.363004665104
In 1.7010632658975002 0.7828745120189999 21.832077095104
In -0.0383444241024998 3.880684212019 9.391558390104
In -0.0458031841024998 3.751355267019 21.860630820104
In 5.1531318508975 0.941465017019 9.365525335104
In 5.1456730908975 0.8121360720189998 21.834597765104
In 3.4062654008975004 3.909945772019 9.394079060104
In 3.3988066408975004 3.780616827019 21.863151490104
O -0.0194599016614997 1.9350128988955 5.180823131173
O -0.0269186616614997 1.8056839538955 17.649895561172997
O -1.7663263516615002 4.9034936538955005 5.209376856173
O -1.7737851116615002 4.7741647088955 17.678449286173
O 3.4251499233385 1.9642744588955 5.183343801173
O 3.4176911633385 1.8349455138955 17.652416231173
O 1.6782834733384997 4.932755213895501 5.211897526173
O 1.6708247133384997 4.8034262688955005 17.680969956172998
O 1.7097445166615002 0.9334004711045 7.319323693827
O 1.7022857566615002 0.8040715261045 19.788396123827003
O -0.0371219333384998 3.9018812261045 7.347877418827
O -0.0445806933384998 3.7725522811045 19.816949848827
O 5.1543543416615 0.9626620311045 7.321844363827
O 5.1468955816615 0.8333330861044999 19.790916793827
O 3.4074878916615003 3.9311427861045 7.350398088827
O 3.4000291316615003 3.801813841104501 19.819470518827004
O 1.7072995351335 0.8910064429335 11.406685636381
O 1.6998407751335 0.7616774979334999 23.875758066381
O -0.0395669148664998 3.8594871979335 11.435239361381
O -0.0470256748664998 3.7301582529335 23.904311791380998
O 5.1519093601335 0.9202680029335 11.409206306381
O 5.1444506001335 0.7909390579334998 23.878278736381
O 3.4050429101335005 3.8887487579335 11.437760031381
O 3.3975841501335005 3.759419812933501 23.906832461380997
O -0.0170149201334997 1.9774069270665 1.093461188619
O -0.0244736801334998 1.8480779820665 13.562533618619
O -1.7638813701335 4.945887682066501 1.122014913619
O -1.7713401301335 4.816558737066501 13.591087343619
O 3.4275949048665 2.0066684870665 1.095981858619
O 3.4201361448665 1.8773395420665 13.565054288619
O 1.6807284548664996 4.975149242066501 1.124535583619
O 1.6732696948664996 4.845820297066501 13.593608013619
O -0.00186469 -0.03233223625 3.1172681075
O -0.00932345 -0.16166118125 15.5863405375
O 5.140488510000001 2.99467163875 3.1508631725000003
O 5.13302975 2.86534269375 15.6199356025
O 3.442745135 -0.00307067625 3.1197887775
O 3.435286375 -0.13239962125 15.5888612075
O 1.6958786850000005 2.96541007875 3.1483425025000003
O 1.6884199250000005 2.83608113375 15.6174149325
O -0.00559407 -0.09699670875 9.3518043225
O -0.01305283 -0.22632565375 21.8208767525
O 5.136759130000001 2.93000716625 9.3853993875
O 5.12930037 2.80067822125 21.8544718175
O 3.439015755 -0.06773514875 9.3543249925
O 3.431556995 -0.19706409375 21.8233974225
O 1.6921493050000005 2.90074560625 9.3828787175
O 1.6846905450000005 2.77141666125 21.8519511475
