40   
   
Ga 3.061471696676612 1.778904200890487 0.6208552191572713
Ga -0.0802652559708165 0.0607460281220428 14.059899797762666
In -1.5548669645733884 4.434948095890486 2.416764439157271
In -0.0167681745733884 1.7814028858904871 2.437314024157271
In 1.5129035254266117 4.440372805890487 2.434205614157271
Ga 3.040532934176612 1.7947509908904873 4.288655179157272
Al 4.558373664294205 0.92524985098747 7.357818683080061
Ga 3.0202748742942047 3.5787950609874697 7.337269098080061
Ga 1.4906031742942047 0.91982514098747 7.340377508080061
Ga -0.0279183497208165 0.0211290531220428 4.890399897762667
Ga -0.0593264934708165 0.0448992381220428 10.392099837762666
Ga -0.0579649969557954 3.58129374598747 9.153727903080062
Ga 1.4598758252791837 2.711792553122043 12.222891407762667
In 2.997974615279184 0.0582473431220428 12.243440992762666
Ga -1.6078946647208163 2.7063678431220426 12.205450232762665
In 3.009124790426612 1.8185211758904871 9.79035511915727
O 1.461140899644205 2.6996661195874694 1.2434370326800617
O -0.0154339387557951 5.24706952118747 1.2237094310800616
O -1.4839187707557953 2.6944583979874697 1.2266935046800618
O 2.988604803176612 1.8340510300904873 13.384799079957272
O -0.0073983624708165 0.0055991989220428 1.2959559369626672
O -1.5561321310557954 4.44707458238747 13.396218813480061
O -0.0795572926557951 1.89967118078747 13.415946415080063
O 1.3889275393442049 4.45228230398747 13.412962341480062
O -1.6373569393708165 4.486208821722042 6.108509757362667
O -0.0377341977708165 1.7265218033220429 6.129881325762667
O 1.553124370229184 4.491850520122043 6.126648579362668
O -0.0261380779557954 3.55720662518747 3.578671963880061
O 3.029644777676612 1.8029913216904871 6.195911158357271
O 4.640863639929183 0.8739891245220427 3.6660732181626674
O 3.0412408983291828 3.633676142922043 3.644701649762667
O 1.4503823303291836 0.8683474261220427 3.6479343961626665
O 4.475883780776613 0.9765105244904873 11.049564148757272
O 2.9993089423766124 3.5239139260904877 11.02983654715727
O 1.5308241103766116 0.9713028028904872 11.03282062075727
O -0.0484383369708165 0.0366589073220428 8.484843858562666
O -0.0688531534557954 3.5895340767874706 11.06098388228006
O 1.5423658000766114 2.660531827290487 8.53114608955727
O 3.0189406384766118 0.1131284256904872 8.550873691157271
O 4.4874254704766114 2.665739548890487 8.547889617557273
