80   
   
Al 1.6351737646999998 7.441907267809999 6.5078965122
Al 6.7352859297 7.427586322809998 6.489641477199999
Al 3.5190682484399995 1.29520763223 1.82997568848
Al 8.619180413439999 1.2808866872299998 1.81172065348
In 0.97392887624 3.06705416999 1.83571713654
Al 6.074041041239999 3.05273322499 1.81746210154
Al 4.180313136900001 5.67006073005 6.502155064139999
Al 9.280425301899998 5.65573978505 6.483900029139999
Al 0.928935896235 5.745770367385 -0.014297521025
Al 6.029048061235 5.731449422385 -0.032552556025
Al 4.212177323764999 2.984572397615 4.662104126025
In 9.312289488765002 2.970251452615 4.643849091025
Al 1.6576426536649995 1.384296058195 4.674315984004999
Al 6.757754818665 1.3699751131949998 4.656060949005
Al 3.516792376335 7.363234866804999 9.339139340994999
Al 8.616904541334998 7.348913921804998 9.320884305995
In 0.89083753641 0.2768471419799999 9.3527133438
Ga 5.990949701409999 0.26252619698 9.334458308799999
Al 4.283530849969999 8.4706494067 4.64201068376
Al 9.38364301497 8.4563284617 4.62375564876
Al 1.7227651014699998 4.633939242 4.65851379806
In 6.82287726647 4.619618297 4.64025876306
Al 3.45160328491 4.113557306679999 9.3362102295
Ga 8.55171544991 4.099236361679999 9.3179551945
In 3.523622501045 1.375280166505 7.355629096625
Al 8.623734666045001 1.360959221505 7.337374061624998
In 1.636617437895 7.364928602334999 2.6680598736549994
In 6.736729602894999 7.350607657334998 2.649804838655
Al 4.182146252495 5.732859178655 2.6620502220749995
Al 9.282258417495 5.718538233654999 2.643795187075
Al 0.978093686445 3.007349590185 7.3616387482049985
In 6.078205851445 2.993028645185 7.343383713205
O 4.274032921465 5.8479075459450005 8.337176623265
O 9.374145086465 5.833586600945 8.318921588265
O 0.893271241195 2.895945112815 3.672029875655
O 5.993383406194999 2.881624167815 3.653774840655
O 3.4393842193950004 1.4735413602549998 3.665617918795
O 8.539496384395001 1.4592204152549997 3.647362883795
O 1.727919943265 7.270311298505 8.343588580125
O 6.828032108264999 7.255990353504998 8.325333545125
O 2.698737366465 0.081917483185 5.881258287024999
O 7.798849531464999 0.067596538185 5.863003252025
O 2.450972880515 8.652859827094998 1.182885687735
O 7.551085045515 8.638538882094998 1.164630652735
O 4.989297010715 4.434913792935 1.181837801275
O 10.089409175715 4.420592847935 1.163582766275
O 0.160413236265 4.299863517345 5.882306173485
O 5.260525401264999 4.285542572345 5.864051138485
O 0.100662925535 7.226594537194998 1.1191069001549998
O 5.200775090534999 7.2122735921949985 1.100851865155
O 5.048514172485 1.507907762525 5.795186695085
O 10.148626337485 1.4935868175249998 5.776931660085
O 2.502206473085 2.860422958045 5.801732753704999
O 7.602318638085 2.846102013045 5.783477718705
O 2.646970624935 5.874079341675 1.112560841535
O 7.747082789934998 5.859758396675 1.094305806535
O 4.99889236441 7.291664228589998 5.94354311814
O 10.09900452941 7.277343283589999 5.92528808314
O 0.15141767515 1.4434224685699997 1.28918253358
O 5.251529840149999 1.4291015235699998 1.27092749858
O 2.70561158315 2.92139383317 1.27720535368
O 7.805723748149998 2.90707288817 1.25895031868
O 2.4446984564099994 5.81369286399 5.95552029804
O 7.544810621409998 5.79937191899 5.93726526304
O 1.874135004525 1.494846922515 8.101212061484999
O 6.974247169525 1.480525977515 8.082957026484998
O 3.291369780395 7.248077575604999 3.402249406555
O 8.391481945394998 7.233756630604998 3.383994371555
O 0.737419273895 5.857466907305 3.414058959255
O 5.837531438895 5.843145962304999 3.395803924255
O 4.428085511025 2.885457590815 8.089402508784998
O 9.528197676024998 2.871136645815 8.071147473784999
O 4.29370773909 0.01223310361 8.413805876019998
O 9.393819904090002 -0.00208784139 8.39555084102
O 0.8740629289099999 8.731860189389998 3.72651970498
O 5.97417509391 8.717539244389998 3.70826466998
O 3.41199761671 4.37413704115 3.72574002204
O 8.51210978171 4.35981609615 3.70748498704
O 1.7557730512899998 4.36995625185 8.41458555896
O 6.85588521629 4.35563530685 8.396330523959998
