40   
   
Ga 3.450397313616345 -0.0124055555350706 3.0698280582849287
In 6.842054556383654 -0.0678550344649294 11.735411291715073
Al -0.019579955 -0.014347975 1.86525182375
In -0.137059685 -0.100435825 13.05676276625
Ga 6.939954331383654 0.0038848405350706 2.409152172965071
Ga 3.352497538616346 -0.0841454305350706 12.396087177034929
In 11.262772183616343 1.5293400294649293 4.859407177034929
Ga 9.469043581383652 1.4853248955350706 9.852874382965071
Ga 4.244497826383655 1.4680632905350706 9.91126200296507
Ga 6.038226428616346 1.5120784244649297 4.9177947970349285
Ga 6.881214569308173 -0.0391590852675353 8.004907792267465
Ga 3.411237300691827 -0.0411015047324647 6.800331557732536
Ga -0.07831982 -0.0573919 7.461007295
In 5.224545755 0.017261605 -0.05838762
Ga 2.60740907 1.538831955 -0.017285085
In 7.831954825 1.55609356 -0.075672705
O 5.2547854233081726 -0.0113954968675353 3.696207599567464
O 5.037666446691828 -0.0688650931324647 11.109031750432536
O 3.470760468382742 0.0025163396127674 1.1299660123647832
O 6.821691401617257 -0.0827769296127674 13.675273337635216
O 7.757898026017258 1.4658831795872325 3.6796139191352166
O 2.525215333582742 1.3918424432127674 11.148490182864784
O 7.749371983982742 1.5315201404127676 11.091055260864785
O 12.982054676417262 1.6055608767872327 3.622178997135217
O -0.0399431082 -0.029269869 3.80511372045
O -0.1166965318 -0.085513931 11.11690086955
O 8.625123445308175 0.0191651763324647 1.1220970424674643
O 1.6673284246918272 -0.0994257663324647 13.683142307532535
O 11.336828878108173 1.6195504095324649 1.1041205540674643
O 9.394597886782742 1.5175306080127675 13.609113702764782
O 4.170441131891828 1.3778529104675352 13.666548625932535
O 6.1126721232172585 1.4798727119872326 1.1615554772352168
O 8.685602678999999 -0.0381490266 8.631287333549999
O 1.6068491910000002 -0.0421115634 6.17395201645
O 6.901577619583654 -0.0242371904649294 6.065045747515072
O 3.3908742504163456 -0.0560233995350706 8.74019360248493
O 11.188715386199998 1.4391296502 8.61469365195
O 9.543489483400002 1.4531191826 6.09663521005
O 4.3185546238 1.5582736698 6.15597552805
O 5.963780526600001 1.5442841374000005 8.674033969949999
