40   
   
Ga 7.972689852018767 -0.1125851845492542 13.507630939846436
Al 5.07932508 -0.06801693 -0.187260635
In 9.233470055481234 1.349354519549254 2.0064683701535615
Al 4.154144975481233 1.4173714495492542 2.1937290051535614
Ga 4.8864699825 -0.067713135 5.2204606
Al 1.5431099829812327 -0.0224360254507458 4.143585240153563
In -0.25714013 0.00040506 7.210294979999999
Al 8.294115014518766 -0.1130915095492542 4.494762214846437
Al 2.28960983 1.4403138 7.063012489999999
Al 7.36893491 1.37229687 6.875751855
Al 8.101259917018766 -0.1127877145492542 9.902483449846436
In 4.7578999175000005 -0.067510605 8.825608089999998
In 2.957649804518767 -0.0446695195492542 11.892317829846435
Al 1.3502548854812328 -0.0221322304507458 9.55130647515356
Al 5.504399764518768 1.3952392204507456 11.745035339846437
Al 10.583724844518766 1.3272222904507456 11.557774704846436
O 3.4102272323000005 -0.0461826522 1.0984129148
O 1.2242562217812327 -0.0219337510507458 13.084351015353562
O 5.8551071939 1.3361297382 0.9570217244
O 10.934999267499999 1.3860261846 0.7654689156
O 8.420113678218767 -0.1132899889492542 0.9617176746464376
O 6.234142667700001 -0.0890410878 12.9476557752
O 8.8827626261 1.4084640018 12.7944819856
O 3.8028705525 1.3585675553999998 12.9860347944
O 6.625017166818767 -0.0912572317492542 5.7804357646464375
O 4.9533264163 -0.0678184506 3.3457839052
O 9.069897128418766 1.2910551586507455 5.639044574246437
O 3.991139042018767 1.4769854650507457 5.822013035446437
O 1.476253549181233 -0.0223307098507458 6.0182619349535615
O 9.96321286221877 -0.1349257873492542 3.2090886650464374
O 12.611832820618767 1.3625793022507455 3.0559148754464367
O 7.5319407470187665 1.3126828558507455 3.2474676842464367
O -0.318842962218767 -0.0002979526507458 10.83698002495356
O 8.168116350818766 -0.1128930301492542 8.027806755046436
O 2.126036999381233 1.382014437749254 10.69558883455356
O 7.2059290729812355 1.431910884149254 10.504036025753562
O 4.691043483700001 -0.0674052894 10.7002847848
O 3.0193527331812327 -0.0439665082507458 8.265632925353561
O 5.667972691581233 1.453538581349254 8.112459135753562
O 10.746730777981233 1.267608274949254 7.929490674553562
