80   
   
In 10.91102889046 5.695775e-06 1.2407448068449998
In 10.91102482046 3.250686355775 1.240732061845
Ga 23.29343353046 1.4020775e-05 1.192928261845
Ga 23.29342946046 3.250694680775 1.192915516845
Ga -0.2094873104600001 -6.500775e-06 4.975877898155
Ga -0.20949138046 3.250674159225 4.975865153155
Ga 12.17291732954 1.824225e-06 4.928061353155
Ga 12.17291325954 3.250682484225 4.928048608155
Ga 4.71982453546 1.625341863275 1.2646467068449998
In 4.71982046546 4.876022523274999 1.2646339618449998
Ga 17.10222917546 1.625350188275 1.216830161845
Ga 17.10222510546 4.876030848275 1.216817416845
In 5.981712974540001 1.6253379917250002 4.951963253155
Ga 5.9817089045400005 4.876018651725 4.951950508155
Ga 18.36411761454 1.625346316725 4.904146708155
Ga 18.36411354454 4.876026976725 4.904133963155
In 9.260528208080002 1.625341068145 4.257185238655
In 9.26052413808 4.876021728144999 4.257172493655
In 21.64293284808 1.625349393145 4.2093686936550005
In 21.64292877808 4.876030053145 4.209355948655
In 1.44100930192 1.625338786855 1.959424721345
In 1.4410052319200002 4.876019446855 1.959411976345
In 13.82341394192 1.625347111855 1.911608176345
In 13.82340987192 4.876027771855 1.911595431345
In 3.0693279230800004 -3.424355e-06 4.281099883655
In 3.06932385308 3.250677235645 4.281087138655
In 15.45173256308 4.900645e-06 4.233283338655
In 15.45172849308 3.250685560645 4.233270593655
In 7.63221365692 2.619355e-06 1.935522821345
In 7.632209586920002 3.250683279355 1.935510076345
Ga 20.01461829692 1.0944355e-05 1.887706276345
In 20.01461422692 3.250691604355 1.887693531345
O 9.50571148006 2.894965e-06 2.698015669535
O 9.50570741006 3.250683554965 2.698002924535
O 21.88811612006 1.1219965e-05 2.650199124535
O 21.88811205006 3.250691879965 2.650186379535
O 1.1958300999400002 -3.699965e-06 3.518607035465
O 1.19582602994 3.2506769600350003 3.5185942904649994
O 13.57823473994 4.625035e-06 3.4707904904649998
O 13.57823066994 3.2506852850350003 3.4707777454649995
O 3.3145071250600004 1.6253390624650002 2.721917569535
O 3.3145030550600003 4.876019722465 2.721904824535
O 15.696911765059998 1.625347387465 2.674101024535
O 15.696907695059997 4.876028047465 2.674088279535
O 7.387030384940002 1.625340792535 3.494692390465
O 7.38702631494 4.876021452535 3.4946796454649998
O 19.76943502494 1.625349117535 3.4468758454649997
O 19.76943095494 4.876029777535 3.4468631004649994
O 8.843339750999998 -1.174325e-06 5.535424117425
O 8.843335681 3.250679485675 5.535411372425
O 21.225744391 7.150675e-06 5.487607572425
O 21.225740321 3.250687810675 5.487594827425
O 1.858201829 3.69325e-07 0.681198587575
O 1.858197759 3.250681029325 0.6811858425749999
O 14.240606469000003 8.694325e-06 0.633382042575
O 14.240602399000004 3.250689354325 0.6333692975749999
O 2.6521353960000007 1.625334993175 5.559326017425
O 2.652131326000001 4.876015653175 5.559313272425
O 15.034540036 1.625343318175 5.511509472425
O 15.034535966 4.876023978175 5.511496727425
O 8.049402114000003 1.625344861825 0.657283942575
O 8.049398044000004 4.876025521825 0.657271197575
O 20.431806754 1.625353186825 0.609467397575
O 20.431802684 4.876033846825 0.609454652575
O -1.19935367002 1.62533357971 4.65428072407
O -1.19935774002 4.87601423971 4.65426797907
O 11.18305096998 1.62534190471 4.60646417907
O 11.18304689998 4.87602256471 4.60645143407
O 11.900891180020002 1.62534627529 1.56232923593
O 11.90088711002 4.8760269352900005 1.56231649093
O 24.28329582002 1.62535460029 1.51451269093
O 24.28329175002 4.87603526029 1.51449994593
O 4.99185068498 -2.58779e-06 4.63037882407
O 4.99184661498 3.25067807221 4.63036607907
O 17.37425532498 5.73721e-06 4.58256227907
O 17.374251254980003 3.25068639721 4.58254953407
O 5.7096908950200005 1.78279e-06 1.58624388093
O 5.70968682502 3.25068244279 1.58623113593
O 18.09209553502 1.010779e-05 1.53842733593
O 18.09209146502 3.25069076779 1.53841459093
