80   
   
Ga -0.04320829 -0.049799145 6.0407885475
Al -0.12962487 -0.149397435 18.1223656425
Al 4.737568595 2.884238185 6.0972779125
Al 4.651152015 2.784639895 18.1788550075
In 3.19408307 0.03718929 6.0641324575
Al 3.10766649 -0.062409 18.1457095525
Al 1.500277235 2.79724975 6.0739340025
In 1.413860655 2.69765146 18.1555110975
In 0.0 0.0 0.0
Al -0.08641658 -0.09959829 12.081577095
In 4.780776885 2.93403733 0.056489365
Al 4.694360305 2.8344390400000004 12.13806646
Al 3.23729136 0.086988435 0.02334391
Al 3.15087478 -0.012609855 12.104921005
Al 1.543485525 2.847048895 0.033145455
Ga 1.4570689449999998 2.747450605 12.11472255
Al -0.0717059043230002 1.8439499755215 3.03470850885
In -0.1581224843230002 1.7443516855215 15.11628560385
In -1.7655117393230002 4.604010435521501 3.04451005385
Al -1.8519283193230005 4.5044121455215 15.12608714885
Al 3.165585455677 1.9309384105215 3.05805241885
In 3.079168875677 1.8313401205215 15.13962951385
Ga 1.4717796206769995 4.6909988705215 3.06785396385
Ga 1.3853630406769997 4.5914005805215 15.14943105885
Ga 1.5287748493229996 0.9035006294785 9.08001404115
In 1.4423582693229997 0.8039023394785 21.16159113615
Al -0.1650309856770004 3.6635610894785 9.08981558615
Al -0.2514475656770004 3.5639627994785 21.17139268115
In 4.766066209323 0.9904890644785 9.10335795115
In 4.679649629323 0.8908907744785001 21.18493504615
In 3.0722603743230006 3.7505495244785 9.11315949615
Al 2.9858437943230003 3.6509512344785 21.19473659115
O -0.0858695817850002 1.8276258157905 5.0148789947205
O -0.1722861617850002 1.7280275257905 17.096456089720498
O -1.7796754167850002 4.5876862757905 5.0246805397205
O -1.8660919967850005 4.4880879857905 17.1062576347205
O 3.151421778215 1.9146142507905 5.0382229047205
O 3.065005198215 1.8150159607905 17.1197999997205
O 1.4576159432149998 4.6746747107905 5.0480244497205
O 1.3711993632149997 4.5750764207905 17.1296015447205
O 1.5429385267849998 0.9198247892095 7.0998435552795
O 1.4565219467849997 0.8202264992095 19.181420650279502
O -0.1508673082150004 3.6798852492095 7.1096451002795
O -0.2372838882150004 3.5802869592095 19.1912221952795
O 4.780229886785 1.0068132242095 7.123187465279499
O 4.6938133067850005 0.9072149342095 19.2047645602795
O 3.0864240517850003 3.7668736842095 7.132989010279499
O 3.0000074717850005 3.6672753942095 19.214566105279506
O 1.5146111718609996 0.8871764697475 11.0601845270205
O 1.4281945918609995 0.7875781797475 23.141761622020496
O -0.1791946631390004 3.6472369297475 11.069986072020502
O -0.2656112431390004 3.5476386397475 23.151563167020495
O 4.751902531861001 0.9741649047475 11.083528437020501
O 4.665485951861 0.8745666147475001 23.165105532020497
O 3.0580966968610004 3.7342253647475 11.0933299820205
O 2.9716801168610005 3.6346270747475 23.174907077020496
O -0.0575422268610002 1.8602741352525 1.0545380229795
O -0.1439588068610002 1.7606758452525 13.1361151179795
O -1.7513480618610002 4.6203345952525 1.0643395679795
O -1.8377646418610003 4.5207363052525 13.1459166629795
O 3.1797491331389995 1.9472625702525 1.0778819329795
O 3.093332553139 1.8476642802525 13.159459027979501
O 1.4859432981389995 4.7073230302525 1.0876834779795
O 1.3995267181389996 4.6077247402525 13.169260572979502
O -0.021604145 -0.0248995725 3.02039427375
O -0.108020725 -0.1244978625 15.10197136875
O 4.75917274 2.9091377575000004 3.07688363875
O 4.67275616 2.8095394675 15.15846073375
O 3.215687215 0.0620888625 3.04373818375
O 3.129270635 -0.0375094275 15.12531527875
O 1.52188138 2.8221493225 3.05353972875
O 1.4354648 2.7225510325 15.13511682375
O -0.064812435 -0.0746987175 9.06118282125
O -0.151229015 -0.1742970075 21.14275991625
O 4.71596445 2.8593386125 9.11767218625
O 4.62954787 2.7597403225000003 21.19924928125
O 3.172478925 0.0122897175 9.08452673125
O 3.086062345 -0.0873085725 21.16610382625
O 1.4786730899999998 2.7723501775 9.09432827625
O 1.39225651 2.6727518875 21.17590537125
