40   
   
In 1.01936939922 6.34220861279 -0.04054278584
In 4.69492539078 3.3217684972100003 5.085047320839999
In 1.85565468558 1.54966750197 5.11241599188
In 3.858640104420001 8.114309608029998 -0.06791145688
In 3.940719755740001 1.55475399271 8.04529933337
In 1.81105368694 8.14094690337 2.8908065630099995
In 4.64850573114 6.34644627041 2.88264923917
In 1.10326771154 3.34925462567 8.053456657209999
In 1.8208332778 8.24073182358 7.098784758749999
In 3.91918727728 1.4450208469 1.98978064103
In 1.08181387788 3.39375290162 1.99710720391
In 4.6582066772 6.291999768859999 7.09145819587
In 1.01906705862 0.3438722886 10.246306266209999
In 4.76039096374 9.375262205559999 5.04178391105
In 1.9198619417400005 5.135458462159999 5.08244475745
In 3.85959608062 4.583676032 10.20564541981
O 4.76760702578 6.49556850631 9.101580355909999
O 0.9980087067400002 3.21184918881 4.01051768091
O 3.8355787181400007 1.64869568849 4.00111421563
O 1.93003701438 8.05872200663 9.110983821189999
O 3.0213986549800005 0.11988032367 6.436954655189999
O 2.70974194058 9.558355909689999 1.25569125827
O 5.54573905598 4.91057397417 1.26290301219
O 0.18540153958 4.76766225919 6.429742901269999
O 5.56354580042 8.08117992594 6.47051710698
O 0.1687700839 1.59805112998 1.40688285614
O 3.0079719749 3.2351996311799995 1.38024110094
O 2.72434390942 6.44403142474 6.497158862179999
O 0.09711649402 7.9784772198899985 1.1984833735499998
O 5.632979400420001 1.69887472675 6.329936717989999
O 2.7953700666200003 3.1849125161900003 6.33975556375
O 2.9347258278200004 6.49243943045 1.18866452779
O 2.1066805105 1.6854442986100002 8.867033403979999
O 3.65540935574 8.018988928829998 3.69080248386
O 0.81625661774 6.47823506623 3.71692501346
O 4.9458332485000005 3.22619816121 8.840910874379999
O 4.80451779018 0.0567716783 9.2078640142
O 0.9620120558200002 9.6514197677 4.0479316168
O 3.797930526420001 4.84940641042 4.05597413168
O 1.9685993195800005 4.85878503558 9.199821499319999
