40   
   
Al 0.065673405 -0.03283798 12.53267283625
Al 0.009381915 -0.00469114 1.79038183375
Ga 0.0676795174866605 3.478558861194718 11.34690452179683
Ga 3.058527662513338 1.7393317688052818 2.971736548203169
Ga 3.03876073 -0.006984345 -0.016143105
In -1.5131848 2.63469422 0.013936305
Al 1.5255759299999998 2.6277098750000003 -0.0022068
Ga -1.484035952486661 4.376319193805283 4.792197791953168
In 0.0291488475133388 1.741624973805282 4.778261486953168
Al 1.5547247775133388 4.3693348488052814 4.776054686953168
In 1.5714824024866605 0.8485557811947179 9.542586383046832
Ga 4.61024313248666 0.8415714361947179 9.52644327804683
Al 3.097058332486661 3.4762656561947183 9.54037958304683
In 0.0489156882372137 3.4879411408194274 7.766140997527377
In 3.0772914917627854 1.7299494891805731 6.552500072472621
Ga 0.03752766 -0.01876456 7.161527335
O 4.568439509313339 0.8673489528052822 13.131479952703168
O 3.115782101313339 3.3966554040052825 13.144858805503167
O 1.651229208513339 0.8740539240052821 13.14697733350317
O 1.4749779714866609 4.343836705994718 1.1716637364968316
O -1.4422323293133392 4.35054167719472 1.1871611172968315
O 0.0104250786866609 1.821235225994718 1.1737822644968317
O 0.0559162134 -0.0279591944 10.67067572915
O 0.0191391066 -0.0095699256 3.65237894085
O 0.0774367098372137 3.473680075219427 13.208901772127378
O 3.0487704701627854 1.7442105547805733 1.1097392978726217
O 1.6424349649627856 2.5644031851805726 10.715811337972621
O 3.0950923729627857 0.0350967339805733 10.702432485172622
O 4.559645265762785 2.5576982139805726 10.700313957172622
O -1.4334380857627858 2.660192416019427 3.6183271128273775
O 1.483772215037214 2.6534874448194268 3.602829732027378
O 0.0311148070372142 5.182793896019426 3.6162085848273775
O -1.5258396682000002 4.402096764 8.397234180749999
O 0.0478725237999999 1.6620147752 8.382740423549999
O 1.634471491 4.3948330452 8.380445351549998
O 1.491735689 0.8230575848 5.93819571845
O 4.6520468482 0.815793866 5.921406889249999
O 3.078334656199999 3.5558758548000005 5.93590064645
O 0.0391584958866605 3.492819926794718 5.904143747196832
O 3.0870486841133387 1.725070703205282 8.414497322803168
