80   
   
Al -0.0665057575 -0.0510590875 5.94335808
Al -0.1995172725 -0.1531772625 17.83007424
Al 4.5103246725 2.8947939925 6.018060875000001
In 4.377313157500001 2.7926758175 17.904777035000002
Al 3.0724054775000003 0.1006479375 5.97921319
Al 2.9393939625 -0.0014702375 17.86592935
Al 1.3714134375 2.7430869675 5.982205765000001
Al 1.2384019225 2.6409687925 17.868921925000002
Al 0.0 0.0 0.0
Al -0.133011515 -0.102118175 11.88671616
Ga 4.57683043 2.94585308 0.074702795
Al 4.4438189150000005 2.843734905 11.961418955
In 3.138911235 0.151707025 0.03585511
Al 3.00589972 0.04958885 11.92257127
Ga 1.437919195 2.794146055 0.038847685
Al 1.30490768 2.6920278799999995 11.925563845
Al -0.1209350579884999 1.7864842650804995 2.985624398658
In -0.2539465729884999 1.6843660900804998 14.872340558658
Al -1.8219270979885005 4.4289232950805 2.988616973658
In -1.9549386129885 4.3268051200805004 14.875333133658
In 3.0179761770115 1.9381912900805 3.021479508658
Al 2.8849646620115 1.8360731150805 14.908195668658
Al 1.3169841370114996 4.580630320080499 3.0244720836580004
Al 1.1839726220114997 4.4785121450805 14.911188243658
Al 1.4258427379884997 0.9055436149194998 8.939939446342
Al 1.2928312229884995 0.8034254399194998 20.826655606342
In -0.2751493020114998 3.5479826449195 8.942932021342001
Al -0.4081608170114999 3.4458644699195 20.829648181342
Al 4.564753972988501 1.0572506399195 8.975794556342
Al 4.431742457988501 0.9551324649194998 20.862510716342
Al 2.863761932988501 3.6996896699195 8.978787131342001
Al 2.7307504179885007 3.5975714949194995 20.865503291342
O -0.1427356452969999 1.7697470961979995 4.933857177282
O -0.2757471602969999 1.6676289211979998 16.820573337282
O -1.8437276852970004 4.412186126198 4.936849752282
O -1.9767392002970003 4.3100679511980005 16.823565912282
O 2.996175589703 1.921454121198 4.969712287282
O 2.863164074703 1.819335946198 16.856428447282
O 1.2951835497029995 4.563893151197999 4.972704862282
O 1.1621720347029996 4.461774976198 16.859421022282
O 1.4476433252969998 0.9222807838019996 6.991706667718
O 1.3146318102969998 0.8201626088019998 18.878422827718
O -0.2533487147029999 3.564719813802 6.994699242718
O -0.3863602297029999 3.462601638802 18.881415402718
O 4.586554560297 1.0739878088019998 7.027561777718
O 4.453543045297001 0.9718696338019998 18.914277937718
O 2.8855625202970008 3.716426838802 7.030554352718
O 2.7525510052970006 3.614308663802 18.917270512718
O 1.4040421506799998 0.8888064460369998 10.888172224966
O 1.27103063568 0.7866882710369998 22.774888384966
O -0.2969498893199999 3.531245476037 10.891164799966
O -0.4299614043199999 3.429127301037 22.777880959966
O 4.542953385680001 1.040513471037 10.924027334966
O 4.409941870680001 0.9383952960369998 22.810743494966
O 2.8419613456800006 3.682952501037 10.927019909966
O 2.708949830680001 3.5808343260369995 22.813736069966
O -0.0991344706799999 1.803221433963 1.037391620034
O -0.2321459856799999 1.7011032589629995 12.924107780034
O -1.8001265106800004 4.445660463963 1.040384195034
O -1.9331380256800004 4.343542288963 12.927100355034
O 3.03977676432 1.954928458963 1.073246730034
O 2.90676524932 1.852810283963 12.959962890034
O 1.3387847243199995 4.597367488962999 1.076239305034
O 1.2057732093199995 4.495249313963 12.962955465034
O -0.03325287875 -0.02552954375 2.97167904
O -0.16626439375 -0.12764771875 14.8583952
O 4.54357755125 2.92032353625 3.046381835
O 4.4105660362500005 2.81820536125 14.933097995
O 3.10565835625 0.12617748125 3.00753415
O 2.97264684125 0.02405930625 14.89425031
O 1.4046663162500002 2.76861651125 3.010526725
O 1.2716548012500002 2.66649833625 14.897242885
O -0.09975863625 -0.07658863125 8.915037120000001
O -0.23277015125 -0.17870680625 20.80175328
O 4.47707179375 2.86926444875 8.989739915000001
O 4.344060278750001 2.76714627375 20.876456075
O 3.0391525987500003 0.07511839375 8.950892230000001
O 2.90614108375 -0.02699978125 20.83760839
O 1.33816055875 2.71755742375 8.953884805000001
O 1.20514904375 2.61543924875 20.840600965
