80   
   
Al -0.0645838175 -0.049686465 5.9492579025
Al -0.1937514525 -0.149059395 17.8477737075
Al 4.5278789825 2.886759855 6.0218634325
In 4.3987113475 2.787386925 17.9203792375
Ga 3.0794129325 0.09280525 5.9840527025000005
Al 2.9502452975 -0.00656768 17.8825685075
Ga 1.3838822325 2.7442681399999995 5.987068632500001
Al 1.2547145975 2.64489521 17.8855844375
Al 0.0 0.0 0.0
Al -0.129167635 -0.09937293 11.898515805
Al 4.5924628 2.93644632 0.07260553
Al 4.463295165 2.83707339 11.971121335
Al 3.14399675 0.142491715 0.0347948
In 3.014829115 0.043118785 11.933310605
Al 1.44846605 2.793954605 0.03781073
Al 1.319298415 2.694581675 11.936326535
Al -0.1146385565949999 1.7901144185834998 2.9882364770280003
In -0.2438061915949999 1.6907414885835 14.886752282028
Al -1.810169256595 4.4415773085835 2.991252407028
Ga -1.939336891595 4.3422043785835 14.889768212028
Al 3.029358193405 1.9326061335835 3.023031277028
Al 2.9001905584049994 1.8332332035835 14.921547082028
In 1.3338274934049994 4.5840690235835 3.026047207028
Al 1.2046598584049997 4.4846960935835005 14.924563012028
In 1.4339369715949997 0.9044672564164998 8.948090057972001
Al 1.3047693365949995 0.8050943264164999 20.846605862972
Al -0.2615937284050003 3.5559301464165 8.951105987972001
Al -0.3907613634050003 3.4565572164165 20.849621792972
Al 4.577933721595 1.0469589714165 8.982884857972001
In 4.448766086595 0.9475860414165 20.881400662972
Al 2.882403021595 3.6984218614165 8.985900787971998
Al 2.753235386595 3.5990489314165 20.884416592972
O -0.1358091319714999 1.7738271953565 4.9384032174675
O -0.2649767669714999 1.6744542653565 16.8369190224675
O -1.8313398319715 4.4252900853565 4.9414191474675
O -1.9605074669715 4.3259171553565 16.8399349524675
O 3.0081876180284994 1.9163189103565 4.9731980174675
O 2.8790199830284995 1.8169459803565 16.871713822467502
O 1.3126569180284997 4.5677818003565 4.9762139474675005
O 1.183489283028499 4.4684088703565 16.8747297524675
O 1.4551075469714996 0.9207544796435 6.9979233175325
O 1.3259399119714996 0.8213815496434999 18.896439122532506
O -0.2404231530285003 3.5722173696435 7.0009392475325
O -0.3695907880285003 3.4728444396435 18.899455052532506
O 4.5991042969715 1.0632461946435 7.0327181175325
O 4.4699366619715 0.9638732646435 18.931233922532506
O 2.9035735969715 3.7147090846435 7.035734047532499
O 2.7744059619715 3.6153361546435 18.934249852532506
O 1.4127663962184995 0.8881800331894999 10.8982567984115
O 1.2835987612184996 0.7888071031894999 22.7967726034115
O -0.2827643037815003 3.5396429231895 10.9012727284115
O -0.4119319387815003 3.4402699931895 22.7997885334115
O 4.5567631462185 1.0306717481895 10.9330515984115
O 4.4275955112185 0.9312988181895 22.8315674034115
O 2.8612324462185 3.6821346381895 10.9360675284115
O 2.7320648112185 3.5827617081895 22.8345833334115
O -0.0934679812184999 1.8064016418105 1.0380697365885
O -0.2226356162184999 1.7070287118105 12.9365855415885
O -1.7889986812185 4.457864531810501 1.0410856665885
O -1.9181663162185 4.3584916018105 12.9396014715885
O 3.0505287687814997 1.9488933568105 1.0728645365885
O 2.9213611337814998 1.8495204268105 12.9713803415885
O 1.3549980687814993 4.600356246810501 1.0758804665885
O 1.2258304337814994 4.5009833168105 12.9743962715885
O -0.03229190875 -0.0248432325 2.97462895125
O -0.16145954375 -0.1242161625 14.87314475625
O 4.56017089125 2.9116030875 3.0472344812500003
O 4.43100325625 2.8122301575 14.94575028625
O 3.11170484125 0.1176484825 3.00942375125
O 2.98253720625 0.0182755525 14.90793955625
O 1.41617414125 2.7691113725 3.01243968125
O 1.28700650625 2.6697384425 14.91095548625
O -0.09687572625 -0.0745296975 8.92388685375
O -0.22604336125 -0.1739026275 20.82240265875
O 4.49558707375 2.8619166225 8.99649238375
O 4.36641943875 2.7625436925 20.89500818875
O 3.04712102375 0.0679620175 8.95868165375
O 2.91795338875 -0.0314109125 20.85719745875
O 1.35159032375 2.7194249075 8.96169758375
O 1.22242268875 2.6200519775 20.86021338875
