40   
   
In 0.0255886486299277 3.711402036893976 15.05453022801307
Ga 1.6400069749127606 2.7610235016719296 2.6205625623622524
In 3.2083708699127604 -0.0430495683280705 2.622438417362252
In -1.5727258700872395 2.804336211671929 2.6162368223622523
In 3.2380678952073123 1.8116317476840944 0.0045170833746773
In -0.0076334563372395 0.0004604979219295 4.581697146112252
In -1.5561147697926885 4.659806952684095 7.852653363374677
In 0.0122491252073115 1.8557338826840943 7.854529218374677
In 1.6566180752073123 4.616494242684094 7.856979103374675
In 0.0419460548799277 3.710415255643976 5.23660788426307
Ga 0.0321316111299277 3.711007324393976 11.12736129051307
In 3.2217104889573123 1.8126185289340944 9.822439427124674
In 4.809956869879929 0.8638189006439756 13.09714735426307
In 3.241592974879928 3.667891970643976 13.095271499263069
Ga 1.597224024879928 0.9071316106439756 13.09282161426307
In -0.0174479000872395 0.0010525666719295 10.472450552362252
O 4.765794244757313 0.9006025003340948 1.3417390325246774
O 3.260164905557312 3.592512647534095 1.3399382117246774
O 1.6815707135573117 0.9421827019340948 1.337586322124677
O -0.0238600033372395 0.0014393849219295 14.321076111112253
O 0.0483581581299277 3.710028437393976 1.38798232551307
O 1.6841696956573116 2.724239845034095 14.375970884224678
O 3.189799034857312 0.0323296978340948 14.377771705024676
O 4.768393226857311 2.682659643434095 14.380123594624676
O 1.569672404429928 2.7993860082939754 6.57382983341307
O 0.0640430652299283 5.491296155493975 6.57202901261307
O -1.5145511267700722 2.8409662098939754 6.56967712301307
O 3.231655791957312 1.8120185659340944 3.8531426421246766
O -0.0110357968372395 0.0006657484219295 6.623824993612253
O -1.4857802946700724 4.621444502993976 3.8993859351130697
O 0.0198490445299279 1.929534355793976 3.9011867559130704
O 1.5984432365299284 4.579864301393975 3.9035386455130694
O -1.626449340537239 4.698169459321928 11.805920791512253
O 0.0046491102627603 1.7819334665219295 11.807871680712253
O 1.7147928182627614 4.653124240921929 11.810419561112253
O 0.0355339516299277 3.710802073893976 9.08523344301307
O 3.218308148457312 1.8128237794340945 11.864567274624676
O 4.88029144036276 0.8254563940219295 9.143880083212252
O 3.24919298956276 3.7416923868219296 9.141929194012253
O 1.5390492815627603 0.8705016124219295 9.139381313612253
