80   
   
Al -0.06673994 -0.03584754 5.9167255
Al -0.20021982 -0.10754262 17.750176500000002
In 4.493732485000001 2.8089401050000005 5.98447457
Al 4.360252605 2.7372450250000004 17.81792557
Al 3.03481734 0.06999433 5.9523681150000005
Al 2.90133746 -0.00170075 17.785819114999995
Ga 1.3921752050000002 2.703098235 5.948831955
Ga 1.258695325 2.631403155 17.782282955
Al 0.0 0.0 0.0
Al -0.13347988 -0.07169508 11.833451
Al 4.560472425 2.8447876450000003 0.06774907
Ga 4.426992545 2.773092565 11.90120007
Al 3.10155728 0.10584187 0.035642615
Ga 2.9680774000000003 0.03414679 11.869093615
Al 1.4589151450000002 2.738945775 0.032106455
Al 1.3254352650000003 2.667250695 11.865557455
Ga -0.094606175767 1.772580388344 2.9678852293235
Ga -0.2280860557669999 1.700885308344 14.801336229323502
Al -1.737248310767 4.405684293344 2.9643490693235
Al -1.870728190767 4.333989213344 14.7978000693235
Al 3.0069511042330004 1.878422258344 3.0035278443235
Ga 2.873471224233 1.806727178344 14.8369788443235
Al 1.3643089692330002 4.511526163344 2.9999916843235
Al 1.2308290892330005 4.439831083344 14.8334426843235
Al 1.420041440767 0.8946703066559999 8.8976722256765
Al 1.2865615607670002 0.8229752266559999 20.731123225676498
Al -0.2226006942329999 3.527774211656 8.894136065676499
Ga -0.3560805742329999 3.456079131656 20.727587065676495
Ga 4.521598720767002 1.000512176656 8.933314840676498
Ga 4.388118840767 0.9288170966559998 20.766765840676495
Ga 2.8789565857670008 3.633616081656 8.929778680676499
Al 2.745476705767001 3.561921001656 20.763229680676496
O -0.1164835280989999 1.760829564732 4.9073878482235
O -0.2499634080989999 1.689134484732 16.7408388482235
O -1.759125663099 4.393933469732 4.9038516882235
O -1.892605543099 4.322238389732 16.7373026882235
O 2.9850737519010004 1.866671434732 4.9430304632235
O 2.851593871901 1.794976354732 16.7764814632235
O 1.3424316169010002 4.499775339732 4.9394943032235
O 1.2089517369010003 4.428080259732 16.772945303223494
O 1.441918793099 0.906421130268 6.9581696067765
O 1.3084389130990002 0.834726050268 18.791620606776497
O -0.2007233419009999 3.539525035268 6.9546334467765
O -0.3342032219009999 3.467829955268 18.788084446776498
O 4.543476073099002 1.0122630002679998 6.9938122217765
O 4.409996193099 0.9405679202679998 18.827263221776498
O 2.9008339380990007 3.645366905268 6.990276061776499
O 2.767354058099001 3.573671825268 18.823727061776506
O 1.3981640884350002 0.8829194830439999 10.837174844576499
O 1.264684208435 0.8112244030439999 22.670625844576495
O -0.2444780465649999 3.516023388044 10.833638684576501
O -0.3779579265649998 3.444328308044 22.667089684576496
O 4.499721368435001 0.9887613530439998 10.872817459576499
O 4.366241488435001 0.9170662730439998 22.706268459576496
O 2.857079233435001 3.621865258044 10.8692812995765
O 2.723599353435001 3.550170178044 22.702732299576496
O -0.072728823435 1.784331211956 1.0283826104235
O -0.2062087034349999 1.712636131956 12.861833610423503
O -1.715370958435 4.417435116956 1.0248464504235
O -1.848850838435 4.345740036956 12.858297450423501
O 3.0288284565650003 1.890173081956 1.0640252254235
O 2.8953485765650004 1.818478001956 12.897476225423501
O 1.3861863215650003 4.523276986956 1.0604890654235
O 1.2527064415650002 4.451581906956 12.8939400654235
O -0.03336997 -0.01792377 2.95836275
O -0.16684985 -0.08961885 14.79181375
O 4.5271024550000005 2.8268638750000004 3.02611182
O 4.393622575 2.7551687950000003 14.85956282
O 3.0681873100000003 0.0879181 2.994005365
O 2.93470743 0.01622302 14.827456365
O 1.425545175 2.721022005 2.990469205
O 1.2920652950000002 2.649326925 14.823920205
O -0.10010991 -0.05377131 8.875088250000001
O -0.23358979 -0.12546639 20.70853925
O 4.460362515000001 2.791016335 8.94283732
O 4.3268826350000005 2.719321255 20.77628832
O 3.00144737 0.05207056 8.910730864999998
O 2.8679674900000003 -0.01962452 20.744181865
O 1.3588052350000002 2.685174465 8.907194705
O 1.2253253550000005 2.613479385 20.740645705
