80   
   
Ga 10.84070581084 5.674505e-06 1.2001978489349998
Ga 10.840697885840001 3.131988589505 1.2002046389349998
Ga 23.11410607084 1.3069505e-05 1.1801921139349998
In 23.114098145840003 3.131995984505 1.1801989039349998
Al -0.1078666508400001 -3.389505e-06 4.723128426065
Ga -0.1078745758400001 3.131979525495 4.723135216065
Ga 12.16553360916 4.005495e-06 4.703122691065
Al 12.16552568416 3.131986920495 4.703129481065
Ga 4.70400171834 1.565993434505 1.210204111435
In 4.70399379334 4.697976349505001 1.210210901435
Al 16.97740197834 1.566000829505 1.190198376435
Al 16.97739405334 4.697983744505001 1.190205166435
Ga 6.02882951666 1.565991765495 4.7131289535650005
Ga 6.02882159166 4.697974680494999 4.713135743565
Al 18.30222977666 1.565999160495 4.693123218565
Al 18.30222185166 4.697982075494999 4.693130008565
In 9.26510074156 1.565994171235 4.060304330725
In 9.26509281656 4.697977086235 4.060311120725
In 21.53850100156 1.566001566235 4.040298595725
Ga 21.53849307656 4.697984481235 4.040305385725
In 1.4677304934400004 1.565991028765 1.863028734275
Ga 1.4677225684400004 4.697973943765 1.863035524275
Ga 13.741130753440002 1.565998423765 1.843022999275
In 13.74112282844 4.697981338765 1.843029789275
In 3.1284045740600006 -9.83765e-07 4.070303803225
Ga 3.128396649060001 3.131981931235 4.070310593225
In 15.40180483406 6.411235e-06 4.0502980682250005
Al 15.401796909060003 3.131989326235 4.050304858225
Al 7.6044345859400035 3.268765e-06 1.853022471775
In 7.6044266609400015 3.131986183765 1.853029261775
Ga 19.87783484594 1.0663765e-05 1.833016736775
Al 19.87782692094 3.131993578765 1.833023526775
O 9.47687681432 3.882595e-06 2.580691345525
O 9.47686888932 3.131986797595 2.580698135525
O 21.750277074320003 1.1277595e-05 2.560685610525
O 21.750269149320005 3.131994192595 2.560692400525
O 1.2559623456800002 -1.597595e-06 3.3426349294749995
O 1.2559544206800004 3.131981317405 3.342641719475
O 13.52936260568 5.797405e-06 3.322629194475
O 13.529354680680001 3.131988712405 3.322635984475
O 3.34017272182 1.565991642595 2.590697608025
O 3.34016479682 4.697974557595 2.590704398025
O 15.613572981820003 1.565999037595 2.570691873025
O 15.61356505682 4.697981952595 2.570698663025
O 7.392658513180002 1.565993557405 3.3326354569749994
O 7.392650588180001 4.697976472405 3.3326422469749994
O 19.666058773180005 1.566000952405 3.312629721975
O 19.66605084818 4.697983867405 3.312636511975
O 8.877189838099998 1.626925e-06 5.272860700175
O 8.877181913099998 3.131984541925 5.272867490175
O 21.1505900981 9.021925e-06 5.252854965175
O 21.1505821731 3.131991936925 5.252861755175
O 1.8556493219000003 6.58075e-07 0.650465574825
O 1.8556413969000003 3.1319835730750003 0.6504723648249999
O 14.129049581900002 8.053075e-06 0.630459839825
O 14.129041656900002 3.131990968075 0.630466629825
O 2.7404857456000005 1.565989386925 5.282866962675
O 2.7404778206 4.697972301925001 5.282873752675
O 15.0138860056 1.565996781925 5.262861227675
O 15.013878080599996 4.6979796969250005 5.262868017675
O 7.9923454894 1.565995813075 0.640466102325
O 7.9923375644 4.697978728075 0.6404728923249999
O 20.2657457494 1.566003208075 0.620460367325
O 20.2657378244 4.697986123074999 0.620467157325
O -1.09554725876 1.56598769035 4.41581905549
O -1.09555518376 4.69797060535 4.41582584549
O 11.17785300124 1.56599508535 4.39581332049
O 11.177845076240002 4.69797800035 4.39582011049
O 11.82837849376 1.5659975096499998 1.50751400951
O 11.82837056876 4.69798042465 1.50752079951
O 24.10177875376 1.56600490465 1.48750827451
O 24.10177082876 4.69798781965 1.48751506451
O 5.041156833740001 -6.965e-08 4.40581279299
O 5.04114890874 3.13198284535 4.40581958299
O 17.314557093740003 7.32535e-06 4.38580705799
O 17.314549168740005 3.13199024035 4.38581384799
O 5.6916823262600005 2.35465e-06 1.51751348201
O 5.69167440126 3.1319852696500003 1.51752027201
O 17.96508258626 9.74965e-06 1.49750774701
O 17.96507466126 3.1319926646500003 1.49751453701
