30   
   
Al -0.00040477475 0.00296401895 1.9696830827
Ga -0.00180054975 0.01318477395 8.761693712699998
Ga -0.00238677525 0.01747749105 11.6143381773
Ga -0.00099100025 0.00725673605 4.8223275473
Ga 2.510066743869103 1.4784971244789986 6.495898270779336
Ga 2.5086709688691027 1.4887178794789986 13.287908900779335
Ga 2.510876293369103 1.4725690865789984 2.556532105379336
Ga 2.5094805183691027 1.4827898415789986 9.348542735379336
Ga -0.0185102533691028 2.925597293421001 11.021298084620664
Ga -0.0171144783691028 2.9153765384210013 4.229287454620664
Ga -0.0177007038691028 2.919669255521001 7.081931919220664
Ga -0.0163049288691028 2.9094485005210013 0.2899212892206639
O 1.5261337898199998 0.01372557044 3.39625241453
O 1.73842695273 3.0563846118899995 3.39169013921
O -0.7714968150499999 1.32294582017 3.39388232126
O 0.75393908727 1.34178176811 10.18614005079
O -1.77518558495 3.04678757983 10.18313235874
O 3.51012310018 0.03514891956 10.18858435547
O 4.036605308439104 1.4892586759689983 7.922467602609336
O 1.7537408813491029 0.1541928474189986 7.924096397289336
O 1.7389747035691028 2.7984789256989986 7.920097509339336
O 3.267202155889103 2.796873363638998 1.128333978869336
O 3.281968333669103 0.1525872853589986 1.132332866819336
O 0.984337728799103 1.4618075350889983 1.129962773549336
O 1.5080283112008976 2.9363588449110014 12.447867416450665
O -0.7748361158891028 1.6012930163610013 12.449496211130665
O -0.7896022936691028 4.245579094641001 12.445497323180664
O 0.7386251586508975 4.243973532581001 5.653733792710664
O 0.7533913364308971 1.5996874543010011 5.657732680660664
O -1.5442392684391026 2.9089077040310016 5.655362587390664
