30   
   
Al -0.00189997705 0.00234434405 1.9621053624
In -0.00845162205 0.01042828905 8.7279859224
Al -0.01120331295 0.01382354595 11.5696557576
Al -0.00465166795 0.00573960095 4.8037751976
In 2.4884475080820985 1.4642727563421476 6.473001407328798
Al 2.4818958630820984 1.4723567013421477 13.238881967328798
In 2.4922474621820982 1.4595840682421477 2.548790682528798
Al 2.485695817182098 1.4676680132421476 9.314671242528798
Al -0.024762342182098 2.9017246917578525 10.980121707471206
Al -0.018210697182098 2.893640746757853 4.214241147471202
Al -0.020962388082098 2.8970360036578526 7.055910982671201
Al -0.014410743082098 2.8889520586578525 0.2900304226712021
O 1.51280202728 0.01145835806 3.38408437164
O 1.72569429927 3.03260515889 3.38095471519
O -0.76773538405 1.31320327055 3.3809330231700003
O 0.7417908207300001 1.32870360111 10.14795767481
O -1.7683367559499998 3.0236289694500003 10.14420348683
O 3.47765194272 0.02918605194 10.15145262836
O 4.003149512412096 1.4733867703521475 7.894980416568797
O 1.735453374402098 0.1493927011821476 7.894699490118798
O 1.722612101082098 2.775131682842148 7.891829068098798
O 3.245241595862097 2.774464123402148 1.127092599738798
O 3.258082869182098 0.1487251417421476 1.129963021758798
O 0.9775454578520982 1.4504700542321478 1.1268116732887978
O 1.4899396621479024 2.9108387057678526 12.402100716711203
O -0.777756475862098 1.5868446365978526 12.401819790261202
O -0.790597749182098 4.212583618257852 12.398949368241203
O 0.7320317455979023 4.211916058817852 5.634212899881201
O 0.7448730189179019 1.5861770771578527 5.637083321901201
O -1.5356643924120978 2.8879219896478525 5.633931973431203
