80   
   
Al 1.70595701755 7.699214440979999 6.6961264867
Ga 6.98764476255 7.682204145979998 6.6698640317
Ga 3.64757263651 1.3394999774799998 1.87941510882
In 8.929260381510002 1.32248968248 1.8531526538200005
In 1.0125587021700002 3.17188277756 1.88686254112
Ga 6.294246447170001 3.154872482559999 1.8606000861200005
In 4.34097095189 5.866831640899999 6.6886790544
In 9.62265869689 5.8498213459 6.6624165994
Ga 0.964412696995 5.938101174015 -0.023215520245
Ga 6.246100441995 5.921090879015 -0.049477975245
Al 4.370174623005 3.088878115985 4.795404755245
Al 9.651862368005 3.071867820985 4.769142300245
Ga 1.7240203117850004 1.4360293621249998 4.813713301145
Ga 7.005708056785 1.4190190671249998 4.787450846145
In 3.658643998215001 7.620734517874999 9.611654513855001
In 8.940331743215001 7.603724222875 9.585392058855
In 0.9362182865700002 0.2977699945499999 9.63826918098
In 6.217906031569999 0.28075969955 9.61200672598
In 4.4463498694500005 8.758934316269999 4.76779227686
In 9.72803761445 8.741924021269998 4.74152982186
Ga 1.79280712175 4.794636656170001 4.7933040483600005
Ga 7.074494866750001 4.77762636117 4.76704159336
In 3.5897610342700004 4.262067654649999 9.61275740948
In 8.87144877927 4.24505735965 9.58649495448
Ga 3.660323886015001 1.4293566947849996 7.574644157585
Al 8.942011631015001 1.4123463997849997 7.548381702585002
Al 1.701859626245 7.614718949874998 2.738469582335
Al 6.983547371245 7.597708654874999 2.712207127335
Al 4.337335337865 5.926801706435 2.730571948435
Al 9.619023082865 5.909791411434999 2.704309493435
Al 1.024848174395 3.117273938225 7.582541791485002
In 6.306535919395 3.100263643225 7.556279336485
O 4.440759955195 6.052962191325 8.579692842345
O 9.722447700195 6.035951896325 8.553430387345001
O 0.9316158789450002 2.997427786415 3.779894756535001
O 6.213303623945001 2.980417491415 3.753632301535
O 3.5677842564850004 1.526208877935 3.771321820235
O 8.849472001485001 1.509198582935 3.745059365235
O 1.804591577655 7.5241810998049985 8.588265778645
O 7.086279322655 7.507170804805 8.562003323645001
O 2.803386242555 0.091065977845 6.057808299545
O 8.085073987554999 0.074055682845 6.0315458445450005
O 2.543604940865 8.943597736374999 1.204901009095
O 7.825292685865 8.926587441374998 1.1786385540950002
O 5.170537772805 4.583067695095 1.205332104795
O 10.452225517805001 4.5660574000950005 1.1790696497950002
O 0.176453410615 4.451596019124999 6.057377203845
O 5.458141155615 4.434585724124999 6.031114748845001
O 0.108910745125 7.470412239794999 1.144370876155
O 5.390598490124999 7.453401944794998 1.118108421155
O 5.237311206455 1.5637749209849998 5.963887575205001
O 10.518998951455 1.5467646259849996 5.937625120205
O 2.600911940275 2.9627610511449998 5.972685612305001
O 7.882599685275 2.945750756145 5.946423157305
O 2.745310011305 6.071426109635 1.135572839055
O 8.026997756305 6.054415814635 1.109310384055
O 5.18857260956 7.54176479883 6.109705931780001
O 10.47026035456 7.524754503829999 6.08344347678
O 0.15928395968 1.49343503801 1.3267605913000002
O 5.44097170468 1.47642474301 1.3004981363
O 2.805034215780001 3.01987642981 1.3088459718000005
O 8.08672196078 3.00286613481 1.2825835168000002
O 2.54282235346 6.01532340703 6.127620551280001
O 7.82451009846 5.99831311203 6.10135809628
O 1.953230332885 1.554599277745 8.345388512025
O 7.234918077885 1.537588982745 8.319126057025
O 3.4165493437950003 7.494182332134998 3.492927443535
O 8.698237088795 7.477172037134999 3.4666649885350003
O 0.7710876984950001 6.058031913235 3.510560687035
O 6.052775443495 6.041021618235 3.484298232035
O 4.598691978185 2.990749696645 8.327755268525001
O 9.880379723185 2.973739401645 8.301492813525
O 4.4587891069 0.02161462167 8.66587717202
O 9.7404768519 0.00460432667 8.63961471702
O 0.9142598051 9.02919234033 3.828854926980001
O 6.1959475501000005 9.012182045329999 3.8025924719800006
O 3.54073085976 4.524196742409999 3.82973622428
O 8.822418604760001 4.50718644741 3.803473769280001
O 1.8323180522400004 4.526610219589999 8.66499587472
O 7.11400579724 4.50959992459 8.638733419720001
