80   
   
Ga 1.67840659052 7.59845121913 6.62238210058
Al 6.88892421552 7.58239730913 6.599218350579999
In 3.59724366492 1.32209387795 1.86002302434
In 8.807761289919998 1.30603996795 1.83685927434
In 0.99749062502 3.13082498897 1.86682075558
Ga 6.208008250019999 3.11477107897 1.84365700558
Al 4.278159630420001 5.789720108110001 6.61558436934
In 9.48867725542 5.773666198110001 6.59242061934
Al 0.950617300275 5.862786422690001 -0.01973030429
Al 6.161134925275 5.846732512690001 -0.04289405429
Al 4.308340254725 3.0479650873100006 4.74315826429
Al 9.518857879725 3.0319111773100005 4.71999451429
Al 1.698066283025 1.4157466724700003 4.75909797321
In 6.908583908024999 1.3996927624700002 4.73593422321
Al 3.603258531975 7.51986165753 9.50488116679
Ga 8.813776156974999 7.50380774753 9.48171741679
Ga 0.91850954274 0.2895662166 9.52640860242
Al 6.1290271677399994 0.2735123066 9.503244852420002
In 4.382730537739999 8.64599239976 4.71848943522
Al 9.59324816274 8.62993848976 4.69532568522
In 1.76547895324 4.731693470360001 4.74049221742
In 6.97599657824 4.7156395603600005 4.71732846742
In 3.53576112724 4.203865146 9.50440582022
In 8.74627875224 4.187811236 9.48124207022
Ga 3.606826845845 1.40812257956 7.48882824075
Al 8.817344470845 1.39206866956 7.46566449075
Al 1.6764495163949995 7.51689674512 2.71087609657
In 6.886967141394999 7.50084283512 2.68771234657
Al 4.276638657095 5.850795666260001 2.70369942325
Ga 9.487156282094999 5.834741756260001 2.68053567325
Ga 1.006637705145 3.0742236584200007 7.49600491407
Al 6.217155330144999 3.058169748420001 7.47284116407
O 4.375587539004999 5.972606668560001 8.484664939269999
O 9.586105164005 5.956552758560001 8.46150118927
O 0.916670682355 2.9576823019600003 3.73763624821
O 6.127188307355 2.94162839196 3.71447249821
O 3.517513974255 1.5055262713400004 3.72989116177
O 8.728031599254999 1.4894723613400005 3.70672741177
O 1.774744247105 7.424762699180001 8.492410025709999
O 6.985261872104999 7.408708789180001 8.46924627571
O 2.762416066365 0.08743603012 5.98863256855
O 7.972933691364998 0.07138212012 5.96546881855
O 2.5074722417149995 8.829728539439998 1.19625759589
O 7.717989866715 8.813674629439998 1.17309384589
O 5.099593517614999 4.52497186562 1.19609135105
O 10.310111142615002 4.50891795562 1.17292760105
O 0.170294790465 4.392192703940001 5.98879881339
O 5.380812415464998 4.376138793940001 5.96563506339
O 0.105825162935 7.37495665384 1.13447266777
O 5.316342787935 7.35890274384 1.11130891777
O 5.163385268985 1.5418102066 5.89776867779
O 10.373902893985 1.5257562966 5.87460492779
O 2.5623239266849995 2.9226512211400006 5.90570323527
O 7.772841551684999 2.9065973111400005 5.88253948527
O 2.706886505235 5.994115639300001 1.1265381102899998
O 7.917404130234998 5.978061729300001 1.10337436029
O 5.114412453879999 7.443759053990002 6.04458044804
O 10.32493007888 7.42770514399 6.02141669804
O 0.15623846488 1.47385293833 1.31203963764
O 5.366756089879999 1.4577990283300002 1.28887588764
O 2.76613084838 2.9812700750300003 1.29643150304
O 7.976648473379998 2.9652161650300006 1.27326775304
O 2.5045200703799995 5.936341917290001 6.06018858264
O 7.715037695379999 5.920288007290001 6.03702483264
O 1.922320480785 1.5311746363100005 8.249728948529999
O 7.132838105784999 1.5151207263100002 8.22656519853
O 3.367649908535 7.39777206593 3.45738247523
O 8.578167533534998 7.38171815593 3.43421872523
O 0.758030088035 5.979498699330001 3.47275377103
O 5.968547713035 5.96344478933 3.44959002103
O 4.531940301284999 2.9494480029100005 8.234357652729999
O 9.742457926284999 2.9333940929100004 8.21119390273
O 4.3941505248 0.01786444625 8.56710748312
O 9.6046681498 0.00181053625 8.543943733119999
O 0.8987008382 8.91277251975 3.78876142088
O 6.1092184632 8.896718609749998 3.76559767088
O 3.4903860133 4.465385813770001 3.78897411812
O 8.700903638299998 4.449331903770001 3.76581036812
O 1.8024653497 4.46525115223 8.56689478588
O 7.0129829747 4.44919724223 8.54373103588
