30   
   
Ga -0.00235969077392 0.004278716243 2.05742238828088
Ga -0.01034003077392 0.018749091243 9.01550789828088
Ga -0.01360098922608 0.024662033757 11.85874863171912
In -0.00562064922608 0.010191658757 4.900663121719121
Ga 2.575617852023933 1.5336545247092803 6.695869768619611
Al 2.567637512023933 1.5481248997092805 13.653955278619607
In 2.5803372335717727 1.5250970922232805 2.5810249920578503
Ga 2.5723568935717727 1.5395674672232804 9.53911050205785
Ga -0.0375007735717724 3.0203598177767192 11.328663527942147
Al -0.0295204335717724 3.005889442776719 4.37057801794215
In -0.0327813920239324 3.011802385290719 7.213818751380391
In -0.0248010520239324 2.997332010290719 0.25573324138039
O 3.5967617218676007 0.0368331947384 3.4829644290864
O 0.7799229218104001 1.3909150782776 3.4770567763
O -1.829858013678 3.110473449484 3.4706245596136
O 1.7629135381896004 3.1545418317224003 10.4326317437
O -0.8184016163220001 1.392312900516 10.4334102003864
O 1.5783736881324002 0.0347781152616 10.4388603509136
O 0.9836431746654524 1.5235384432046803 8.11575804942513
O 3.357900464608252 2.92029088674388 8.11550415663873
O 3.380418479119853 0.1660036579502807 8.12120819995233
O 1.7980546209874524 0.1384607301886807 1.16139060403873
O 1.7755366064758529 2.89274795898228 1.15568656072513
O 4.172311910930252 1.5352131737278805 1.16113671125233
O -1.6294754509302525 3.0102437362721197 12.74855180874767
O 0.7447818390125476 4.406996179811319 12.74829791596127
O 0.7672998535241475 1.6527089510177193 12.754001959274868
O -0.8150640046082525 1.6251660232561187 5.79418436336127
O -0.8375820191198524 4.37945325204972 5.78848032004767
O 1.5591932853345476 3.02191846679532 5.79393047057487
