40   
   
Al 12.003709581980115 2.038636731909768 2.940037553806541
Ga 8.495860004613466 1.974476388211564 11.56613758964797
In 5.1360413219345125 2.020348057004488 1.7926432082080626
Al 5.047222721934513 1.954328812004488 12.832400035708062
In 8.569875504613467 2.029492425711564 2.3663402333979704
Ga 11.929694081980115 1.9836206944097683 12.13983491005654
Ga 9.415311306980117 0.5089245544097682 4.800625710056541
Ga 0.7789152096134664 0.4475525607115641 9.80624085339797
Al 6.830753761980118 2.0084154594097683 4.839431075056541
Al 3.3525103846134665 1.9662615307115645 9.785612168397968
Al 8.525466203429218 1.9964828023313077 7.886218794344728
Ga 11.974103383164366 2.0166303177900247 6.619956349109783
In 5.091632021934513 1.987338434504488 7.312521621958062
In 7.735401966934512 0.5318603595044882 -0.0861216280419375
In 2.577249246934512 0.5126422945044882 -0.0266875780419375
Al 10.308997141934514 2.050569329504488 -0.1067503130419375
O 7.739766897829219 0.5701994133313075 3.618297462644728
O 2.4540211239643654 0.5070056967900249 10.989296168009783
O 12.019104807164364 2.0500800685900247 1.0264795565097833
O 8.480464779429218 1.963033051531308 13.479695586944729
O 2.5820526726292186 0.4302533533313077 3.677004445444728
O 7.6126123387643645 0.4054957667900249 10.929135050809784
O 10.210418265829219 2.0281600245313074 3.598493925044728
O 10.289151320764367 1.9849530955900248 10.907681218409785
O 5.120646149406416 2.008904751578667 3.706201057895489
O 5.062617997406416 1.9657721781786672 10.918842185195489
O 4.252793759029219 0.4513674963313076 1.155640668544728
O 5.941871252364366 0.3843816237900249 13.450498827709785
O 9.410507984229218 0.5913135563313077 1.096933685744728
O 11.099585477564366 0.5243276837900248 13.391791844909783
O 6.929332741029218 2.030824825131308 1.134186836144728
O 13.570236845564366 1.982288294990025 13.371988307309785
O 4.261523467806416 0.5280454533786675 8.564478703595489
O 5.932264554206417 0.5491595963786675 6.043114926695488
O 8.540861428613466 2.0079261390115644 5.972660797047971
O 11.958708157980116 2.005186981109768 8.533514346406541
O 9.420114682606416 0.4265355233786676 8.504317586395489
O 0.7745503290064157 0.4092135363786675 6.101821909495489
O 6.732174835806416 1.9860060645786672 8.54467516599549
O 3.451089311006416 1.9886708651786675 6.080368077095488
