40   
   
In 1.8117010220287693 -0.0011388830046167 0.6208398184809825
In 8.921929827971228 -0.1502461269953833 14.79845490151902
Ga 9.970075195778769 1.6074071744953833 2.4599638797309824
In 4.512209725778769 1.5867318694953834 2.5464872647309824
In 5.38957793625 -0.0516005525 5.7606046737500005
In 1.7661759995287694 -0.0493227880046167 4.518925190980983
In -0.091050045 -0.09636781 7.796170745
In 9.03574238422123 -0.0297863644953833 5.053241470269017
Ga 2.63222117 1.515594895 7.772775505
In 8.09008664 1.5362702 7.68625212
In 8.96745485047123 -0.1020622219953833 10.900369529019018
In 5.34405291375 -0.0997844575 9.65869004625
In 3.4868268692212303 -0.1468294794953833 12.935935600269016
Ga 1.6978884657787694 -0.1215986455046167 10.366053249730983
Ga 6.2100980842212286 1.4651332255046168 12.912540360269018
In 11.66796355422123 1.4858085305046167 12.826016975269017
O 3.69587001195 -0.0023233203 1.26651312485
O 1.6532739437287691 -0.1688188724046167 14.186176914780985
O 6.31021037835 1.5451608765 1.2440536944500002
O 11.76762292675 1.6939661857 1.1591196256500005
O 9.080356906271229 0.0174338624046167 1.2331178052190177
O 7.03776083805 -0.1490616897 14.15278159515
O 9.86996290165 1.5273795235 14.12845054555
O 4.41255035325 1.3785742143 14.21338461435
O 7.273746926171229 -0.0527849897953833 6.406277980119017
O 5.41325094795 -0.0265449219 3.73360028005
O 9.88808729257123 1.4946992070046168 6.383818549719018
O 4.42976890097123 1.6021539062046173 6.471931250919018
O 1.7425029878287694 -0.0743784186046167 6.545929584680983
O 10.79773784227123 -0.0067877391953833 3.7002049604190175
O 13.62993990587123 1.6696534740046167 3.6758739108190177
O 8.17252735747123 1.5208481648046166 3.7608079796190177
O -0.0641069922712305 -0.1445972708046167 11.719089759580983
O 8.99112786217123 -0.0770065913953833 8.87336513531902
O 2.5502333741287693 1.4028869259953831 11.69663032918098
O 8.007645922528772 1.5516922351953837 11.611696260380983
O 5.32037990205 -0.1248400881 11.68569443995
O 3.459883923828769 -0.0986000202046167 9.013016739880984
O 6.292085987428769 1.5778411929953835 8.988685690280985
O 11.750404379028769 1.4703864937953832 8.900572989080983
