60   
   
In -0.00260442315 0.00493549537 2.09285743445
Ga 5.25132447685 0.05367521537 2.09931186445
In -0.01134409815 0.02149756037 9.11586895945
Ga 5.24258480185 0.07023728037 9.12232338945
In -0.01487492685 0.02818863463 11.95316561555
Ga 5.23905397315 0.07692835463 11.95962004555
In -0.00613525185 0.01162656963 4.93015409055
Ga 5.24779364815 0.06036628963 4.93660852055
Ga 2.60454684636279 1.55686379677348 6.7744910294783915
In 7.858475746362791 1.60560351677348 6.7809454594783904
Ga 2.5958071713627895 1.57342586177348 13.79750255447839
In 7.84973607136279 1.62216558177348 13.803956984478388
In 2.60975569266279 1.54699280603348 2.5887761605783894
In 7.86368459266279 1.59573252603348 2.59523059057839
Ga 2.6010160176627903 1.56355487103348 9.61178768557839
In 7.854944917662791 1.61229459103348 9.618242115578388
Ga -0.0422229626627899 3.06005703396652 11.449684239421613
Ga 5.21170593733721 3.10879675396652 11.456138669421609
Ga -0.0334832876627899 3.04349496896652 4.42667271442161
Ga 5.220445612337209 3.09223468896652 4.43312714442161
Ga -0.0370141163627899 3.05018604322652 7.263969370521609
Ga 5.216914783637209 3.09892576322652 7.27042380052161
Ga -0.0282744413627899 3.03362397822652 0.24095784552161
Ga 5.2256544586372105 3.08236369822652 0.24741227552161
O 1.6138402637 0.02329286626 3.51349372694
O 6.8677691637 0.07203258626 3.51994815694
O 1.7844585218599995 3.1734376238199995 3.5062724087
O 7.03838742186 3.2221773438199994 3.5127268387
O -0.8263962180600001 1.40203831742 3.50718850186
O 4.42753268194 1.45077803742 3.51364293186
O 0.78307420814 1.43361221618 10.5321879913
O 6.03700310814 1.48235193618 10.5386424213
O -1.85999995194 3.15627180258 10.52481746814
O 3.39392894806 3.2050115225799995 10.53127189814
O 3.6226092863 0.05857098374 10.53898375306
O 8.876538186299998 0.10731070374 10.545438183060002
O 4.22099153321279 1.57522116766348 8.195127321968393
O 9.474920433212787 1.62396088766348 8.20158175196839
O 1.80659771137279 0.15144021522348 8.19546865372839
O 7.060526611372789 0.20017993522348 8.20192308372839
O 1.78075505145279 2.95396661882348 8.18882209688839
O 7.03468395145279 3.00270633882348 8.19527652688839
O 3.4077048276527893 2.95241638758348 1.16779853632839
O 8.66163372765279 3.00115610758348 1.17425296632839
O 3.43354748757279 0.14988998398348 1.17444509316839
O 8.68747638757279 0.19862970398348 1.18089952316839
O 0.99331100581279 1.52863543514348 1.16813986808839
O 6.24723990581279 1.5773751551434798 1.17459429808839
O 1.5742217241872098 3.07841440485652 12.870320531911613
O 6.828150624187211 3.12715412485652 12.876774961911613
O -0.8401720976527901 1.6546334524165198 12.870661863671609
O 4.413756802347209 1.7033731724165198 12.877116293671609
O -0.8660147575727898 4.45715985601652 12.864015306831613
O 4.387914142427211 4.505899576016519 12.870469736831609
O 0.7609350186272099 4.45560962477652 5.842991746271609
O 6.014863918627211 4.50434934477652 5.849446176271609
O 0.7867776785472101 1.6530832211765198 5.849638303111609
O 6.040706578547209 1.7018229411765198 5.85609273311161
O -1.6534588032127902 3.03182867233652 5.84333307803161
O 3.6004700967872103 3.08056839233652 5.849787508031611
