40   
   
Al 8.18357790670632 0.1166799620634801 13.673968607845344
Ga 5.07425185 0.035278035 0.011144835
Al 9.24522023954368 1.5235214154365198 2.3888799359046544
Ga 4.170968389543678 1.4882433804365198 2.3777351009046543
Ga 4.967226793749999 0.0579279975 5.35455985125
Ga 1.6081756057936782 0.0293759829365199 4.159704449654655
Al -0.142700075 0.03019995 7.124553355
Ga 8.361953000456321 0.0789300245634801 4.768276914095345
Ga 2.38441769 1.496617335 7.123722345
Ga 7.45866954 1.53189537 7.13486718
Al 8.25492794420632 0.1015799870634801 10.111691930345344
Ga 4.89587675625 0.0730279725 8.91683652875
Ga 3.145001075456321 0.0738519395634801 11.881685434095344
Ga 1.501150549543678 0.0520259454365199 9.503119465904655
Al 5.672118840456321 1.5402693245634802 11.880854424095345
Ga 10.74637069045632 1.57554735956348 11.891999259095344
O 3.42623224525 0.0291230553 1.21875255815
O 1.4312275127936782 0.0668239209365199 12.994150609854657
O 5.85226529965 1.4368837448999998 1.21795478855
O 10.92571649685 1.5880640493 1.22858734935
O 8.43187603720632 0.0641320490634801 1.2772457701453457
O 6.43687130475 0.1018329147 13.05264382185
O 9.06507378035 1.6269069951 13.05177957145
O 3.99162258315 1.4757266907 13.04114701065
O 6.71393339570632 0.0727750448634801 5.975884637245345
O 5.00432881325 0.0500760105 3.50217597895
O 9.13996645010632 1.48053573446348 5.975086867645345
O 4.064913947306321 1.56115996886348 5.963429758445344
O 1.5710735862936782 0.0372279699365199 6.012088321954654
O 10.00997260520632 0.0850850042634801 3.5606691909453447
O 12.63817508080632 1.61015908466348 3.5598049405453454
O 7.564723883606321 1.45897878026348 3.549172379745345
O -0.1468690552063215 0.0458709657365199 10.710727189054653
O 8.292029963706318 0.0937280000634801 8.259308058045345
O 2.2791639991936785 1.4536316553365196 10.709929419454657
O 7.3526151963936766 1.6048119597365198 10.720561980254654
O 4.858774736749999 0.0808799595 10.76922040105
O 3.149170154293678 0.0581809251365199 8.295511742754654
O 5.7773726298936765 1.58325500553652 8.294647492354654
O 10.852425132693678 1.50263077113652 8.306304601554656
