30   
   
In -0.00329950255 0.0040672384 2.0208295823
Al -0.01467709755 0.0180921984 8.9892074523
In -0.01945568745 0.0239826816 11.9159261577
Al -0.00807809245 0.0099577216 4.9475482877
Al 2.5742741602902752 1.5343018335248972 6.667361819245514
In 2.562896565290275 1.5483267935248972 13.635739689245511
In 2.5808731653902752 1.5261673567248972 2.6257026546455133
Al 2.569495570390275 1.5401923167248972 9.594080524645513
In -0.0430867553902756 3.021812133275103 11.306143935354488
Al -0.0317091603902756 3.007787173275103 4.337766065354487
Al -0.0364877502902757 3.013677656475103 7.264484770754486
In -0.0251101552902756 2.999652696475103 0.2961069007544869
O 1.568376356 0.01995795502 3.4865372637800003
O 1.7790086976999997 3.15740339029 3.48076725745
O -0.8039098462 1.36360566469 3.48035313377
O 0.7587777122999999 1.3905760997099998 10.45107933255
O -1.8532382438 3.14164948531 10.44374319623
O 3.603802954 0.05081630498 10.45796873622
O 4.145950018840273 1.5501925501448972 8.133069500725513
O 1.7960407605402753 0.1677084154148973 8.132208644395513
O 1.7736638166402747 2.8938402598148976 8.126885370715513
O 3.359106565140275 2.8927607748348976 1.1608558294955131
O 3.381483509040275 0.1666289304348973 1.166179103175513
O 1.0091973068402753 1.5102766401048973 1.159994973165513
O 1.5285891031597243 3.037702849895103 12.771851616834487
O -0.8213201551402755 1.655218715165103 12.770990760504487
O -0.8436970990402756 4.381350559565103 12.765667486824489
O 0.7417456494597245 4.380271074585103 5.799637945604488
O 0.7641225933597243 1.6541392301851028 5.804961219284487
O -1.608163608840275 2.9977869398551027 5.798777089274488
