80   
   
Al 7.472544815 2.486885075 7.4746269175
In 2.48956045 7.4676474599999985 7.4785273875
Al 7.471431485 7.472522635 2.4963412375
Al 7.47151575 7.468737929999999 7.4783552325
In 2.489476185 7.471432164999999 2.4965133925
Al 7.47246055 2.49066978 2.4926129225
In 2.490589515 2.485794605 7.4747990725
In 2.49050525 2.48957931 2.4927850775
In 7.47205812642 4.64093786086 4.98523055208
Al 2.48898949642 9.62548495086 0.00711702708
In 7.47183390858 5.32225455414 0.00372360792
In 4.98049023748 7.470342407439999 4.648657360840001
In -0.00035173252 2.48361437744 9.62711519584
In -0.00145360248 7.468737217559998 5.32638341916
In 4.6422796721 4.97719211554 7.476588859039999
In 9.6251797721 0.00021443554 2.49067439404
In 5.3208546579 -0.00451243554 7.47283713096
Al 2.48996287358 5.317379379139999 4.98590975792
In 7.47286297358 0.34040169914 -4.70708e-06
Al 2.49001856142 4.643632095859999 0.00338871208
In 4.98153076252 2.4879748325599995 5.32248294916
In -0.00153786748 7.472521922559999 0.34436942416
In -0.00043599752 2.48739908244 4.64510120084
In 5.3197413279 4.98112512446 2.49455145096
In 0.3388993579 -0.00560290554 7.47300928596
In 4.6432244721 -0.00087603446 2.49084654904
Al 2.49099193858 0.33552652414 4.98218144292
In 4.98144649752 2.49175953756 0.34046895416
In 0.3377860279000001 4.98003465446 2.49472360596
In 7.47102906142 9.62279071586 4.98895886708
In 4.98057450248 7.4665577024399985 9.63067135584
In 9.6242349721 4.97828258554 7.47641670404
O 6.17693039885 3.89219558245 6.53910443157
O 3.78459447349 8.872101962770001 8.416152643089998
O 8.767014217509999 6.06863517663 1.55862646131
O 6.17651341015 6.06286037815 8.41396723903
O 6.535115208230001 6.175968597529999 3.90033218733
O 8.40890861723 3.78130453885 8.88049186085
O 1.55266153397 8.763791480750001 6.07460116795
O 8.40836714057 6.174728482869999 6.07242555887
O 3.89464339992 6.5323506591 6.18245427787
O 8.876171324279998 8.40843446098 3.79231725171
O 6.06784879352 1.5490052024199998 8.76929818069
O 6.06638898228 8.406002777499998 6.18378106473
O 3.78509060115 6.066121657549999 3.43203587843
O 6.177426526510001 1.08621527723 1.55498766691
O 1.19500678249 3.88968206337 8.41251384869
O 3.78550758985 3.89545686185 1.55717307097
O 3.42690579177 3.78234864247 6.07080812267
O 1.55311238277 6.177012701149999 1.09064844915
O 8.40935946603 1.1945257592499998 3.89653914205
O 1.55365385943 3.78358875713 3.89871475113
O 6.06737760008 3.4259665808999995 3.78868603213
O 1.08584967572 1.54988277902 6.17882305829
O 3.89417220648 8.409312037579998 1.20184212931
O 3.89563201772 1.5523144624999998 3.78735924527
O 1.19386176885 8.87674267245 1.56099090657
O 8.767494573490001 3.89512428277 3.43023817809
O 3.78617224751 1.08190714663 6.537084296310001
O 1.19550291015 1.08370175815 3.42839708403
O 1.55427323823 1.18924056753 8.878790022329998
O 3.42583998723 8.765851628850001 3.90237833585
O 6.5355616339700005 3.78681380075 1.08868670295
O 3.42735664057 1.1955698628699998 1.08685540387
O 8.87754349992 1.5553729791 1.19653981287
O 3.89532935428 3.42170643098 8.770775086709998
O 1.0847801635199998 6.53355229242 3.79118465569
O 1.08537848228 3.4268441575 1.19821090973
O 8.768159231150001 1.08157456755 8.41014940343
O 1.19452642651 6.06319295723 6.54090213191
O 6.17584875249 8.876410093369998 3.43405601369
O 8.766518089849999 8.87461548185 6.54274322597
O 8.40774776177 8.76907667247 1.09235028767
O 6.536181012770001 1.1924656111499998 6.06876197415
O 3.42645936603 6.1715034392499994 8.882453607049998
O 6.53466435943 8.762747377129998 8.88428490613
O 1.08447750008 8.402944260899998 8.77460049713
O 6.06669164572 6.53661080902 1.20036522329
O 8.87724083648 3.42476494758 6.17995565431
O 8.87664251772 6.5314730825 8.77292940027
