80   
   
Al 6.8249777325 2.275559365 6.786400805
Al 2.2725699425 6.798884125000001 6.813172865
Ga 6.794061257499999 6.823447015000001 2.2583620950000003
Al 6.8106895425 6.813381645000001 6.796258185
Al 2.2559416575 6.808949495000001 2.275276775
Al 6.8083494475 2.285624735 2.248504715
Al 2.2868581325 2.261061845 6.803315485000001
Al 2.2702298475 2.271127215 2.2654193950000003
Ga 6.81049109192 4.24093127496 4.5217111481600005
Al 2.24145501692 8.77432140496 0.01058711816
Al 6.79191961308 4.868140475040001 -0.01484433816
Al 4.53218487662 6.81185001516 4.22719054588
Al 0.02498175162 2.2494648451600003 8.77214393588
Al -0.00367327662 6.795983604840001 4.86125909412
Al 4.2401817047 4.536235913640001 6.80093703324
Al 8.7759612097 0.02297652364 2.23626888324
Ga 4.8716541603 0.00038529636 6.788779256760001
Al 2.27042829808 4.84357758504 4.53996643184
Al 6.80620780308 0.33031819504 -0.02470171816
Al 2.25574320692 4.236499124960001 0.00072973816
Ga 4.54873451338 2.27265884484 4.83448703412
Al -0.02030156162 6.80604897484 0.32336300412
Al 0.00835346662 2.2595302151600003 4.234247845880001
Al 4.8407376853 4.548272946360001 2.26074054676
Ga 0.3335345603 -0.01411222364 6.80569393676
Al 4.2378416097 0.00847900364 2.2531835632400004
Al 2.28471648808 0.30575530504 4.53010905184
Al 4.53210622838 2.28272421484 0.29659094412
Al 0.3026180853000001 4.533775426360001 2.2776552267600003
Ga 6.79620290192 8.778753554960002 4.53156852816
Ga 4.548813161619999 6.801784645160001 8.765086635879998
Al 8.778301304699998 4.5507334336400005 6.78402235324
O 5.63791124934 3.5533481823200006 5.940453938040001
O 3.4515778865 8.080427073600001 7.66467929428
O 7.974875505499998 5.5494427768 1.39806003212
O 5.63793383366 5.528054117280001 7.65100068556
O 5.94929887847 5.6380492541 3.5386658334200005
O 7.67911846427 3.4552802572200005 8.06547046134
O 1.41099935193 7.97883081838 5.53922904626
O 7.6628817803299984 5.6391118203 5.51082860898
O 3.55068249532 5.952478833200001 5.6266967544
O 8.075448159079999 7.67802890808 3.4352983260800003
O 5.55223753912 1.41574347952 7.96917054072
O 5.523930281479999 7.6650209292 5.6230283288
O 3.4430081406600004 5.53116067768 3.12122364196
O 5.6293415035 1.0040817864 1.39699828572
O 1.1060438844999998 3.5350660832000007 7.66361754788
O 3.44298555634 3.5564547427200006 1.41067689444
O 3.1316205115299995 3.4464596059000003 5.52301174658
O 1.40180092573 5.6292286027800005 0.99620711866
O 7.66992003807 1.1056780416199998 3.5224485337400004
O 1.41803760967 3.4453970397000004 3.55084897102
O 5.53023689468 3.1320300268 3.4349808256000003
O 1.00547123092 1.4064799519200002 5.626379253920001
O 3.52868185088 7.66876538048 1.09250703928
O 3.55698910852 1.4194879308 3.4386492512
O 1.0688751743399998 8.086738312319998 1.4293299080400002
O 7.9873573915 3.5671676836000006 3.10001114428
O 3.4676723805000003 0.9870576068 5.943013422120001
O 1.09747413866 0.98579968728 3.12016189556
O 1.44209575347 1.0756640840999998 8.083619223420001
O 3.11008238927 7.988670387220002 3.5543464313400004
O 5.94677885693 3.46557142838 0.97456089626
O 3.1224220853299998 1.0968573903 0.97998981898
O 8.08646200032 1.4392194432 1.0620286044
O 3.56824503408 3.11564373808 7.98025171608
O 0.98320146412 5.9491336095200005 3.4580465107200005
O 0.98347058648 3.1227664992 1.0921895388
O 8.012044215659998 0.9977705476800002 7.63234767196
O 1.0935619984999998 5.5173411764 5.961666435720001
O 5.6132470095 8.0974512532 3.11866415788
O 7.98344525134 8.098709172719998 5.9415156844400006
O 7.63882363653 8.0088447759 0.97805835658
O 5.97083700073 1.09583847278 5.5073311486600005
O 3.13414053307 5.61893743162 8.087116683740001
O 5.958497304670001 7.987651469700001 8.081687761020001
O 0.99445738968 7.6452894168 7.9996489756
O 5.51267435592 5.96886512192 1.08142586392
O 8.097717925879998 3.13537525048 5.60363106928
O 8.097448803519999 5.961742360800001 7.969488041200002
