40   
   
Ga 0.1005294607307487 3.603624130173432 14.158609889352492
In 1.605470528623843 2.7188276198589847 2.45797363588294
Al 3.1709036286238432 -0.0215428201410148 2.44173637088294
In -1.5509076163761568 2.7333196998589853 2.47705096088294
Ga 3.1648821581454083 1.807590834967583 -0.0146115902354306
In 3.197564495645408 1.7917266699675831 5.522219114764569
In 0.025419596123843 -0.0123387951410148 4.30642393088294
In -1.513352636854591 4.541301134967584 7.403143939764569
Al 0.0520804631454084 1.8009306949675832 7.386906674764569
Ga 1.6430255081454088 4.5268090549675835 7.38406661476457
In 0.0787412357307487 3.614200240173432 10.467389419352493
In 3.2193527206454084 1.7811505599675832 9.21343958476457
In 4.811446593230749 0.8540496651734315 12.277685064352493
Al 3.2460134932307483 3.5944201051734312 12.293922329352492
In 1.6550684482307492 0.8685417451734315 12.29676238935249
In 0.058101933623843 -0.0282029601410148 9.843254635882943
O 4.683269753045408 0.9224389511675832 1.2291027007645696
O 3.180453977045409 3.553194573567584 1.2446904751645695
O 1.6531467338454084 0.9363513479675832 1.2474169327645697
O 0.079454394123843 -0.0385675479410148 13.46065069648294
O 0.0247064377307487 3.640428992973432 1.3131626537524912
O 1.7336474632454082 2.650438278767583 13.50655599876457
O 3.236463239245408 0.0196826563675832 13.49096822436457
O 4.763770482445408 2.636525881967583 13.48824176676457
O 1.5644464931307491 2.744912521373432 6.174273005352491
O 0.0616307171307494 5.375668143773432 6.189860779752491
O -1.4656765260692513 2.7588249181734312 6.192587237352491
O 3.1862346186454085 1.7972262471675833 3.6027844703645697
O 0.036749473123843 -0.0178383723410148 6.22585857528294
O -1.472328696669251 4.515216288973432 3.686844423352491
O 0.0304870793307489 1.884460666573432 3.6712566489524905
O 1.5577943225307496 4.501303892173432 3.6685301913524913
O -1.5543766714761564 4.567386036058985 11.11944345688294
O 0.073673752523843 1.7174007784589853 11.102556701282941
O 1.728256599323844 4.552314272858985 11.099603038882941
O 0.0674113587307487 3.619699817373432 8.54795477495249
O 3.230682597645408 1.775650982767583 11.132874229164567
O 4.852470628723844 0.8279647636589852 8.56138569488294
O 3.224420204723843 3.677950021258985 8.57827245048294
O 1.5698373579238432 0.8430365268589852 8.581226112882941
