80   
   
In 7.6413314424999985 2.541642185 7.652232524999999
Ga 2.5463709325000004 7.64069859 7.65126758
In 7.6469765674999985 7.641265235 2.557574735
In 7.643433832499999 7.63868829 7.65474636
In 2.5499136675000003 7.643275535 2.554095955
In 7.644874177499998 2.54421913 2.5550609
In 2.5442685425 2.543652485 7.648753744999999
In 2.5478112775 2.54622943 2.55158212
In 7.64401104248 4.74485457486 5.10473268922
In 2.55259326748 9.84648792486 0.00659611922
In 7.64783970252 5.44062979014 0.00790294578
In 5.09691465598 7.64115714476 4.757813487
Ga -0.00579336902 2.54354439476 9.848992497
In -0.00063005598 7.642816980240002 5.447550048
In 4.747250910300001 5.091307087900001 7.651513495459999
In 9.845754155300002 -0.0051723721 2.55530681546
In 5.4383490747000005 -0.0060124179 7.649472774539999
In 2.5472340675200003 5.44006314514 5.10159579078
In 7.645737312519999 0.3435836851400001 0.00538911078
Al 2.55049087748 4.74944181986 0.00408228422
In 5.09433045402 2.5437605752400003 5.448514993
In 0.00291267902 7.64539392524 0.350378423
In -0.00225063402 2.5461213397600004 4.751820872
In 5.4439941997000005 5.093610632100001 2.55481498454
In 0.3412861747000001 -0.0040021179 7.645993994539999
In 4.748691255300001 -0.0031620721 2.55182803546
In 2.54513167752 0.3430170401400001 5.09908195578
In 5.09787318902 2.5463375202400003 0.351343368
In 0.3469312997 5.095620932100001 2.55133620454
In 7.64611343248 9.841900679860002 5.10724652422
In 5.09337192098 7.63858019976 9.854985112
In 9.8443138103 5.0892967879 7.654992275459999
O 6.3173539966600005 3.98001633027 6.69376867817
O 3.8715341263 9.07705844795 8.611149229769998
O 8.9722860817 6.203860021050001 1.59950205083
O 6.3169385703400005 6.201359500730001 8.611401241229999
O 6.6871830696300005 6.31568448561 3.99366952551
O 8.599126837830001 3.86576953741 9.090942530989999
O 1.58966877997 8.967035212190002 6.21386476821
O 8.60213408757 6.31380506479 6.21734437529
O 3.98426853208 6.68255702336 6.32651137248
O 9.08382244352 8.598272992439998 3.88429297444
O 6.20264334428 1.58329441616 8.97604353056
O 6.207378455120001 8.598169868039998 6.32897332252
O 3.873891113340001 6.20490138973 3.5125598018299997
O 6.3197109837 1.10785927205 1.59517925023
O 1.2189590282999998 3.98105769895 8.606826429169999
O 3.874306539660001 3.98355821927 1.59492723877
O 3.50406204037 3.86923323439 6.212658954489999
O 1.59211827217 6.31914818259 1.11538594901
O 8.601576330030001 1.21788250781 3.99246371179
O 1.58911102243 3.87111265521 3.98898410471
O 6.20697657792 3.50236069664 3.87981710752
O 1.10742266648 1.5866447275600002 6.32203550556
O 3.98860176572 8.601623303839999 1.23028494944
O 3.98386665488 1.5867478519600002 3.87735515748
O 1.22593622166 9.08164968027 1.5956321081699998
O 8.9700373713 3.98057898795 3.5149425497699998
O 3.8695780567 1.10624727105 6.69068106083
O 1.22131601534 1.10890064073 3.5082370012299995
O 1.58447504463 1.21807173561 9.084848535510002
O 3.50770906283 8.967402887410001 3.99280596099
O 6.688172024970001 3.870555752190001 1.11765808821
O 3.50651153257 1.22134620479 1.1141801352899998
O 9.08277177708 1.5860775633600002 1.23030469248
O 3.98111441852 3.50066024244 8.975471984439999
O 1.1112255692800002 6.68492776616 3.87790696056
O 1.11175590012 3.50571100804 1.22580908252
O 8.965308888340001 1.10326803973 8.610696371829999
O 1.2212077387 6.204338732050001 6.69138593023
O 6.321667053300001 9.07867044895 3.51564741917
O 8.969929094660001 9.07601707927 6.69809147877
O 8.60677006537 8.96684598439 1.12147994449
O 6.6835360471700005 1.2175148325899998 6.21352251901
O 3.50307308503 6.31436196781 9.08867039179
O 6.68473357743 8.96357151521 9.09214834471
O 1.1084733329200005 8.598840156639998 8.976023787519999
O 6.210130691480001 6.684257477560001 1.23085649556
O 9.080019540720002 3.49998995384 6.328421519439999
O 9.07948920988 6.679206711960001 8.98051939748
