40   
   
Al 2.9230938024209743 1.6920964654395627 0.5871566166073374
Al -0.0475017465014432 0.0691230210095721 13.4639792202521
Al -1.4710318025790252 4.233742261689564 2.314412065357337
In -0.0083248525790255 1.700776861689563 2.3328061553573374
Ga 1.4541909724209747 4.234077911689563 2.3249337353573374
Al 2.9107020424209744 1.7101285579395629 4.099499034107337
Al 4.363018759080469 0.8809454185508651 7.036089588140562
Al 2.9003118090804683 3.4139108185508653 7.0176954981405615
Al 1.4377959840804686 0.880609768550865 7.0255679181405615
Ga -0.0165223465014432 0.0240427897595721 4.683123176502101
Ga -0.0351099865014432 0.0510909285095721 9.9516368027521
Al -0.0311068459195317 3.4225912148008653 8.763345036890563
Al 1.4212099584985567 2.593408024759572 11.699935591502102
Al 2.8839169084985565 0.0604426247595721 11.7183296815021
In -1.5040128165014433 2.593072374759572 11.6894139215021
Al 2.8921144024209746 1.7371766966895628 9.368012660357337
O 1.3997968676804684 2.573200375000865 1.1859384582905617
O -0.0044018043195315 5.004847159000865 1.1682801318905618
O -1.4084169963195314 2.5728781510008654 1.1758376550905618
O 2.8799704776209745 1.7548481473395627 12.81010822950734
O -0.0043784217014432 0.0063713391095721 1.2410276073521012
O -1.4496187995195318 4.253949962100865 12.828409197990563
O -0.0454201275195315 1.8223031781008647 12.84606752439056
O 1.3585950644804683 4.254272186100865 12.838510001190564
O -1.5420119329014432 4.285662981209572 5.849784461652101
O -0.0207967049014433 1.6513789652095725 5.868914315252101
O 1.5002197530985568 4.286012057209572 5.860726998452101
O -0.0122713707195317 3.3951824342008647 3.424584562290561
O 2.9042583272209743 1.7195052460395628 5.925917091207338
O 4.4339988898985565 0.8290246983095722 3.5007170513521007
O 2.9127836618985565 3.4633087143095724 3.4815871977521007
O 1.391767203898557 0.8286756223095721 3.4897745145521006
O 4.292038716020974 0.932866088139563 10.571462125507338
O 2.8878400440209746 3.364512872139563 10.553803799107335
O 1.4838248520209747 0.9325438641395628 10.561361322307338
O -0.0286662713014432 0.0417142404095721 8.125218745652102
O -0.0375505611195317 3.4319679029008654 10.589763093990562
O 1.4921900888209745 2.541487305239563 8.164563195207338
O 2.896388760820974 0.1098405212395629 8.182221521607337
O 4.300403952820974 2.541809529239563 8.17466399840734
