80   
   
Al 7.383027687500001 2.4577543000000004 7.379939272499999
Al 2.4595006575000005 7.375519090000002 7.3867241175
Al 7.3780499425 7.382907585 2.4636451075
Al 7.3802478375 7.378363275 7.384417927499999
Al 2.4573027625000003 7.380063400000002 2.4659512975
Al 7.380829792500002 2.4622986100000004 2.4591664525
Al 2.4622805075000005 2.454910115 7.3822454624999985
Al 2.4600826125000004 2.459454425 2.4614726425
In 7.380727844800002 4.585729532200001 4.92148764146
In 2.4550029198 9.5080386322 0.00749966646
In 7.3781518902 5.259476662800001 0.00132391854
In 4.91862584314 7.37952235058 4.5905720607400005
Al 0.00285640814 2.45152488058 9.50917241574
In -0.00182242314 7.37606013942 5.26210335426
In 4.586653364260001 4.91644329042 7.38348851592
In 9.50798249926 0.00322281042 2.45593085092
In 5.25865483074 -0.00377887542 7.37869621908
In 2.4596026052 5.252088167800001 4.92440292854
In 7.380931740200001 0.3388676878000001 -0.00315473646
In 2.4577827698 4.5874296572 0.00302101146
In 4.9217046068600006 2.45829534942 5.25531850926
In -0.00402031814 7.38060444942 0.34133053426
In 0.00065851314 2.45606919058 4.58839959574
In 5.253677085740001 4.92137440958 2.46240205408
In 0.3379076507400001 -0.00662306042 7.381002409079999
In 4.58723531926 0.00037862542 2.45823704092
In 2.4623824552 0.3314791928000001 4.91992427354
In 4.91950671186 2.46283965942 0.33454568926
In 0.3329299057400001 4.91853022458 2.46470824408
In 7.377947994800001 9.5063385072 4.92596629646
Al 4.92082373814 7.37497804058 9.51134488074
Al 9.50740054426 4.91928747542 7.3811823259199985
O 6.10243629874 3.845480873130001 6.45669657245
O 3.738524210860001 8.763015978770001 8.31249277897
O 8.65781492274 5.99688967243 1.53667722723
O 6.102050692660001 5.98915772567 8.30885984635
O 6.45429204005 6.101733049300001 3.85057215616
O 8.30802520273 3.73636584486 8.76832809432
O 1.53305762027 8.655624212140001 6.00066419628
O 8.30545126195 6.1008211437 5.99516197824
O 3.847102521360001 6.452428183470001 6.10583085158
O 8.76574948816 8.307602611870001 3.74323768226
O 5.996471047240001 1.53069623193 8.65914856414
O 5.99150306824 8.30381722273 6.10650932702
O 3.73789415126 5.99233682687 3.38919399755
O 6.10180623914 1.07480172123 1.5333977910299998
O 1.18251552726 3.84092802757 8.30921334277
O 3.73827975734 3.8486599743300007 1.53703072365
O 3.3860384099500003 3.7360846507 5.99531841384
O 1.53230524727 6.10145185514 1.07756247568
O 8.307272829729998 1.1821934878600002 3.84522637372
O 1.53487918805 3.7369965563 3.85072859176
O 5.9932279286400005 3.38538951653 3.74005971842
O 1.07458096184 1.5302150881300003 6.10265288774
O 3.8438594027600006 8.30712146807 1.18674200586
O 3.848827381760001 1.53400047727 3.73938124298
O 1.17671137374 8.76778997313 1.54270859745
O 8.65985334586 3.84979549877 3.38493511397
O 3.742045487740001 1.06889220243 6.45527758223
O 1.18188546766 1.0702488756700002 3.3859145613499995
O 1.53852260505 1.1737355793000002 8.769172511159999
O 3.38230027773 8.658674944859998 3.85434011932
O 6.45438675527 3.74240373214 1.07310653128
O 3.38528603695 1.1819122937000002 1.07221669324
O 8.76843165636 1.5392077034700002 1.17827318658
O 3.849980053160001 3.3796051418700004 8.661838037259999
O 1.0707461222400003 6.45300533193 3.74516058914
O 1.0713378432400005 3.38490837273 1.18356404202
O 8.66361907626 1.0700277268700005 8.30318197255
O 1.18047710414 5.98802220123 6.46095545603
O 6.09828496226 8.768925497570002 3.3906129877699995
O 8.65844498234 8.76756882433 6.45997600865
O 8.30180784495 8.6640821207 1.07671805884
O 6.45803017227 1.1791427551400002 5.991550450679999
O 3.3859436947300003 6.095413967860001 8.772784038719998
O 6.45504441305 8.655905406299999 8.77367387676
O 1.0718987936400002 8.29860999653 8.667617383419998
O 5.99035039684 6.458212558130001 1.18405253274
O 8.76958432776 3.38481236807 6.10072998086
O 8.768992606760001 6.45290932727 8.662326527979998
