20   
   
Ga 10.98611851613 1.414136e-05 1.14219036559
Ga 0.0355853338699999 -1.10136e-06 4.51957934441
Ga 4.788194671129999 1.53338320636 1.15531001559
Al 6.233498458869999 1.5333842536400002 4.506459754410001
Ga 9.48223821145 1.53338868039 3.8799069688600007
Ga 1.5394549185499995 1.53337877961 1.7818628011400002
Ga 3.28432508645 3.32539e-06 3.89302655886
Ga 7.73737876355 9.71461e-06 1.76874315114
O 9.12754539315 1.070965e-05 5.0404182001
O 1.89415845685 2.33035e-06 0.6213515099000001
O 2.92962154815 1.5333797746500002 5.053537850100001
O 8.09207158185 1.53338768535 0.6082319199
O 9.65086100075 1.205158e-05 2.46396005967
O 1.3708428492499998 9.8842e-07 3.19780965033
O 3.45293715575 1.53338111658 2.4770797096700004
O 7.568755974250002 1.53338634342 3.18469006033
O -0.97140292028 1.5333748604100002 4.226085722890001
O 11.99309605028 1.53339259959 1.43568404711
O 5.226520924719999 5.79541e-06 4.2129660728900005
O 5.79518292528 7.24459e-06 1.44880363711
