80   
   
Al 10.77545110662 1.72692e-06 1.228769749545
Al 10.77544463162 3.16682082192 1.228778954545
In 22.995751436620004 5.00692e-06 1.210642954545
Ga 22.99574496162 3.16682410192 1.210652159545
In -0.1785746466200001 -4.56692e-06 4.827479095455001
In -0.1785811216200001 3.16681452808 4.827488300455
Al 12.04172568338 -1.28692e-06 4.809352300455001
Al 12.04171920838 3.16681780808 4.8093615054550005
In 4.66529770412 1.5834096344200002 1.237837749545
In 4.66529122912 4.75022872942 1.237846954545
Al 16.885598034120004 1.5834129144200002 1.219710954545
In 16.88559155912 4.75023200942 1.219720159545
In 5.93157228088 1.58340662058 4.818420300455
Al 5.93156580588 4.750225715579999 4.818429505455001
In 18.15187261088 1.58340990058 4.800293505455
In 18.15186613588 4.75022899558 4.800302710455001
Ga 9.16360056521 1.58340810766 4.151781656945
In 9.16359409021 4.75022720266 4.151790861945001
Al 21.38390089521 1.58341138766 4.133654861945001
Al 21.38389442021 4.750230482659999 4.133664066945
Al 1.43326941979 1.58340814734 1.904476393055
Al 1.43326294479 4.75022724234 1.904485598055
Al 13.65356974979 1.58341142734 1.886349598055
Ga 13.65356327479 4.75023052234 1.886358803055
In 3.05345363771 -3.07984e-06 4.160840451945001
In 3.05344716271 3.16681601516 4.160849656945
Ga 15.273753967709997 2.0016e-07 4.142713656945
In 15.27374749271 3.16681929516 4.142722861945001
In 7.54342282229 2.3984e-07 1.895408393055
Ga 7.543416347290002 3.16681933484 1.895417598055
In 19.76372315229 3.51984e-06 1.877281598055
Ga 19.76371667729 3.16682261484 1.877290803055
O 9.396752141719999 3.812e-08 2.639511295215
O 9.39674566672 3.16681913312 2.639520500215
O 21.61705247172 3.31812e-06 2.621384500215
O 21.61704599672 3.16682241312 2.621393705215
O 1.20012431828 -2.87812e-06 3.416737549785
O 1.20011784328 3.16681621688 3.416746754785
O 13.420424648280001 4.0188e-07 3.398610754785
O 13.420418173280003 3.16681949688 3.398619959785
O 3.28659873922 1.58340794562 2.648579295215
O 3.2865922642200003 4.75022704062 2.6485885002150003
O 15.50689906922 1.58341122562 2.630452500215
O 15.50689259422 4.75023032062 2.630461705215
O 7.310271245780003 1.58340830938 3.407678754785
O 7.31026477078 4.75022740438 3.407687959785
O 19.53057157578 1.58341158938 3.389551959785
O 19.53056510078 4.75023068438 3.389561164785
O 8.75910353125 -2.708e-06 5.391058445775
O 8.75909705625 3.1668163870000003 5.391067650775001
O 20.97940386125 5.72e-07 5.3729316507750005
O 20.97939738625 3.1668196670000004 5.372940855775
O 1.83777292875 -1.32e-07 0.665190399225
O 1.83776645375 3.166818963 0.665199604225
O 14.05807325875 3.148e-06 0.6470636042250001
O 14.058066783750002 3.166822243 0.6470728092250001
O 2.648950128750001 1.5834051995000002 5.400126445775
O 2.648943653750001 4.7502242945 5.400135650775001
O 14.86925045875 1.5834084795 5.3819996507750005
O 14.86924398375 4.750227574499999 5.382008855775
O 7.947919856250001 1.5834110555 0.656131604225
O 7.94791338125 4.7502301505 0.6561408092250001
O 20.168220186250004 1.5834143355 0.638004809225
O 20.168213711250004 4.7502334305 0.638014014225
O -1.1573259715900002 1.58340501346 4.51319319584
O -1.15733244659 4.75022410846 4.51320240084
O 11.06297435841 1.58340829346 4.49506640084
O 11.06296788341 4.75022738846 4.49507560584
O 11.75419595659 1.58341124154 1.54306485416
O 11.75418948159 4.7502303365400005 1.54307405916
O 23.97449628659 1.58341452154 1.52493805916
O 23.97448981159 4.75023361654 1.52494726416
O 4.95282743091 -2.89404e-06 4.50412519584
O 4.95282095591 3.16681620096 4.50413440084
O 17.173127760910003 3.8596e-07 4.485998400840001
O 17.173121285910003 3.16681948096 4.48600760584
O 5.64404902909 5.404e-08 1.55212364916
O 5.64404255409 3.16681914904 1.55213285416
O 17.86434935909 3.33404e-06 1.5339968541600002
O 17.86434288409 3.16682242904 1.5340060591600002
