60   
   
In -0.00431352765 0.00623506443 2.14158096787
In 5.40070341735 0.06919891443 2.15234953287
In -0.01878845265 0.02715809943 9.32809428287
In 5.38622849235 0.09012194943 9.33886284787
In -0.02463632235 0.03561100557 12.23144566213
In 5.38038062265 0.09857485557 12.24221422713
In -0.01016139735 0.01468797057 5.04493234713
In 5.39485554765 0.07765182057 5.05570091213
Ga 2.6704446642558 1.61179131220548 6.93342543935407
In 8.0754616092558 1.67475516220548 6.94419400435407
Ga 2.6559697392558004 1.63271434720548 14.11993875435407
In 8.0609866842558 1.6956781972054795 14.130707319354068
Ga 2.6790717195558003 1.59932118334548 2.65026350361407
In 8.0840886645558 1.6622850333454795 2.66103206861407
Ga 2.6645967945558 1.62024421834548 9.836776818614068
In 8.0696137395558 1.6832080683454798 9.847545383614067
Ga -0.0598060645557999 3.15438852665452 11.714515721385933
In 5.3452108804442 3.21735237665452 11.72528428638593
Ga -0.0453311395557999 3.13346549165452 4.528002406385929
In 5.3596858054442 3.19642934165452 4.538770971385929
Ga -0.0511790092557999 3.14191839779452 7.431353785645929
In 5.3538379357442 3.20488224779452 7.4421223506459295
Ga -0.0367040842557999 3.12099536279452 0.24484047064593
In 5.3683128607442 3.18395921279452 0.25560903564593
O 1.6575077565599998 0.0298543833 3.59657337552
O 7.06252470156 0.0928182333 3.60734194052
O 1.82532766696 3.27107115638 3.58754945324
O 7.230344611959999 3.33403500638 3.59831801824
O -0.85633230602 1.44232265282 3.58739973874
O 4.54868463898 1.50528650282 3.59816830374
O 0.7939379880399998 1.48263855362 10.77722977176
O 6.19895493304 1.54560240362 10.78799833676
O -1.92941898398 3.24842320718 10.766610921260002
O 3.47559796102 3.31138705718 10.77737948626
O 3.71855933844 0.0749555367 10.78722181948
O 9.12357628344 0.1379193867 10.79799038448
O 4.332265948465801 1.63541063107548 8.38841784700407
O 9.7372828934658 1.69837448107548 8.39918641200407
O 1.8518703538658 0.16476376415548 8.38764132972407
O 7.256887298865799 0.22772761415548 8.39840989472407
O 1.8184258858858 3.0478789005954803 8.37924421022407
O 7.223442830885799 3.1108427505954803 8.39001277522407
O 3.4976460299458 3.04634873139548 1.19604761324407
O 8.9026629749458 3.1093125813954803 1.20681617824407
O 3.5310904979258 0.16323359495548 1.2044447327440702
O 8.9361074429258 0.22619744495548 1.2152132977440702
O 1.0172504353457998 1.57570186447548 1.19527109596407
O 6.4222673803458 1.63866571447548 1.20603966096407
O 1.6020152196542 3.17800784552452 13.169508129035929
O 7.0070321646542 3.24097169552452 13.18027669403593
O -0.8783803749458 1.70736097860452 13.168731611755929
O 4.526636570054199 1.77032482860452 13.17950017675593
O -0.9118248429257998 4.59047611504452 13.16033449225593
O 4.4931921020742 4.65343996504452 13.17110305725593
O 0.7673953011342001 4.58894594584452 5.97713789527593
O 6.1724122461342 4.65190979584452 5.98790646027593
O 0.8008397691142001 1.7058308094045198 5.985535014775929
O 6.2058567141142 1.76879465940452 5.9963035797759305
O -1.7130002934658 3.11829907892452 5.9763613779959295
O 3.6920166515342 3.18126292892452 5.98712994299593
