80   
   
Al -0.0563243225 -0.05609068 5.9953432275
Al -0.1689729675 -0.16827204 17.9860296825
Al 4.6148808425 2.921699575 6.0647032375
Al 4.5022321975 2.809518215 18.0553896925
Al 3.1389147525 0.08438885 6.0258547325
Al 3.0262661075 -0.02779251 18.0165411875
Al 1.4196417675 2.781220045 6.0341917325
In 1.3069931225 2.669038685 18.0248781875
In 0.0 0.0 0.0
Al -0.112648645 -0.11218136 11.990686455
Al 4.671205165 2.977790255 0.06936001
In 4.55855652 2.865608895 12.060046465
In 3.195239075 0.14047953 0.030511505
In 3.08259043 0.02829817 12.02119796
Al 1.47596609 2.837310725 0.038848505
Al 1.363317445 2.725129365 12.02953496
In -0.1092563493535001 1.816484161936 3.0133985425665
Al -0.2219049943535001 1.704302801936 15.0040849975665
Al -1.8285293343535003 4.513315356936 3.0217355425665
Al -1.9411779793535 4.401133996936 15.012421997566499
Al 3.0859827256465 1.956963691936 3.0439100475665
Al 2.9733340806465 1.844782331936 15.0345965025665
In 1.3667097406465 4.653794886936 3.0522470475665
Al 1.2540610956465 4.541613526936 15.0429335025665
In 1.4725737943535002 0.908645203064 9.0161364174335
Al 1.3599251493535 0.7964638430639999 21.0068228724335
Al -0.2466991906464998 3.605476398064 9.024473417433502
In -0.3593478356464998 3.493295038064 21.0151598724335
In 4.6678128693535 1.049124733064 9.0466479224335
Al 4.5551642243535 0.936943373064 21.037334377433503
Al 2.9485398843535 3.745955928064 9.054984922433501
Al 2.8358912393535003 3.633774568064 21.0456713774335
O -0.1277194622690001 1.798097637032 4.978672052541
O -0.2403681072690001 1.685916277032 16.969358507541
O -1.846992447269 4.494928832032 4.9870090525410005
O -1.959641092269 4.382747472032 16.977695507541
O 3.067519612731 1.938577167032 5.009183557541
O 2.954870967731 1.826395807032 16.999870012541
O 1.348246627731 4.635408362032 5.017520557541
O 1.235597982731 4.523227002032 17.008207012541
O 1.4910369072690002 0.9270317279679998 7.050862907459
O 1.378388262269 0.8148503679679998 19.041549362459
O -0.2282360777309998 3.623862922968 7.059199907459
O -0.3408847227309998 3.511681562968 19.049886362459002
O 4.686275982269 1.067511257968 7.081374412459
O 4.573627337269 0.955329897968 19.072060867459
O 2.967002997269 3.764342452968 7.089711412459
O 2.854354352269 3.652161092968 19.080397867459002
O 1.454110681438 0.8902586781599998 10.981409927408
O 1.341462036438 0.7780773181599999 22.972096382408
O -0.2651623035619998 3.58708987316 10.989746927408
O -0.3778109485619998 3.47490851316 22.980433382408
O 4.649349756438 1.03073820816 11.011921432408
O 4.536701111438 0.91855684816 23.002607887408
O 2.9300767714380003 3.72756940316 11.020258432408
O 2.817428126438 3.61538804316 23.010944887408
O -0.0907932364380001 1.83487068684 1.048125032592
O -0.2034418814380001 1.72268932684 13.038811487592
O -1.8100662214380003 4.53170188184 1.056462032592
O -1.9227148664380005 4.419520521840001 13.047148487592
O 3.104445838562 1.97535021684 1.078636537592
O 2.991797193562 1.86316885684 13.069322992592
O 1.3851728535619998 4.67218141184 1.086973537592
O 1.272524208562 4.56000005184 13.077659992592002
O -0.02816216125 -0.02804534 2.99767161375
O -0.14081080625 -0.1402267 14.98835806875
O 4.64304300375 2.949744915 3.06703162375
O 4.53039435875 2.837563555 15.05771807875
O 3.16707691375 0.11243419 3.0281831187500003
O 3.05442826875 0.00025283 15.01886957375
O 1.44780392875 2.809265385 3.03652011875
O 1.33515528375 2.697084025 15.02720657375
O -0.08448648375 -0.08413602 8.99301484125
O -0.19713512875 -0.19631738 20.98370129625
O 4.58671868125 2.893654235 9.06237485125
O 4.47407003625 2.781472875 21.05306130625
O 3.11075259125 0.05634351 9.02352634625
O 2.99810394625 -0.05583785 21.01421280125
O 1.39147960625 2.753174705 9.03186334625
O 1.27883096125 2.640993345 21.02254980125
