80   
   
Ga 1.71908965873 7.679469083079998 6.67813272878
Ga 6.979813998730001 7.652019418079998 6.64840893878
Ga 3.63707430335 1.3294002331 1.87218097902
Ga 8.89779864335 1.3019505681 1.84245718902
Ga 1.01615262557 3.16315637154 1.88151844874
Ga 6.27687696557 3.13570670654 1.85179465874
Ga 4.340011336510001 5.845712944640001 6.6687952590599995
Ga 9.60073567651 5.81826327964 6.639071469059999
Ga 0.97242135924 5.923703338225 -0.02331596353
Ga 6.2331456992400005 5.896253673225 -0.05303975353
Ga 4.362277750760001 3.0735914517750005 4.78021788353
Ga 9.62300209076 3.046141786775 4.75049409353
Ga 1.7233163205200002 1.4294659857949998 4.80011192829
Ga 6.98404066052 1.4020163207949998 4.77038813829
Ga 3.66586210948 7.597205774205 9.58473869171
Ga 8.926586449480002 7.569756109204999 9.55501490171
Ga 0.9396285831 0.29503772841 9.612506695379999
Ga 6.2003529231 0.26758806341 9.582782905379998
Ga 4.44944088826 8.731575277649998 4.75308802722
Ga 9.71016522826 8.704125612649996 4.723364237219999
Ga 1.7985152698600002 4.78087548335 4.77998332382
Ga 7.0592396098600005 4.75342581835 4.75025953382
Ga 3.5905542015000003 4.24573752271 9.58561139878
Ga 8.8512785415 4.218287857709999 9.55588760878
In 3.653808810010001 1.418895442155 7.552541094269999
In 8.914533150009998 1.391445777155 7.52281730427
In 1.71216142967 7.595261728624998 2.73080337953
In 6.97288576967 7.567812063624999 2.7010795895299995
In 4.333830869210001 5.905666485705 2.7210283315699995
In 9.59455520921 5.878216820704999 2.69130454157
In 1.0321393704700002 3.108490685075 7.5623161422299985
In 6.292863710470001 3.081041020075 7.53259235223
O 4.44105629921 6.031205305855 8.55482092703
O 9.701780639210002 6.003755640854999 8.525097137029999
O 0.93646355631 2.9891797825649995 3.76964867117
O 6.197187896310001 2.961730117565 3.73992488117
O 3.559254638490001 1.515825882925 3.75921725585
O 8.819978978490001 1.488376217925 3.72949346585
O 1.81826521703 7.504559205494998 8.56525234235
O 7.07898955703 7.4771095404949985 8.535528552349998
O 2.7965683867700006 0.085157543735 6.04012860479
O 8.057292726770001 0.057707878735 6.010404814789999
O 2.55218638779 8.919716504525 1.20078407981
O 7.812910727790001 8.892266839525002 1.17106028981
O 5.16002223477 4.5631446944850005 1.19910422929
O 10.42074657477 4.535695029485001 1.16938043929
O 0.18873253979 4.441729353774999 6.04180845531
O 5.44945687979 4.414279688774999 6.01208466531
O 0.12415279879 7.454459155585 1.14191861057
O 5.38487713879 7.427009490584998 1.11219482057
O 5.22373030665 1.5499448611549995 5.944946894829999
O 10.484454646650002 1.5224951961549995 5.91522310483
O 2.60056534359 2.9512183130350005 5.95559709927
O 7.86128968359 2.9237686480350003 5.925873309269999
O 2.7473177618500007 6.053185703705001 1.1312684061299998
O 8.00804210185 6.025736038705001 1.1015446161299998
O 5.187205681490001 7.5154581674299985 6.09090363232
O 10.44793002149 7.488008502429999 6.06117984232
O 0.16252972083 1.4899446662900002 1.32331212888
O 5.42325406083 1.4624950012900002 1.29358833888
O 2.80083685953 3.0079293486900003 1.30380096508
O 8.06156119953 2.98047968369 1.27407717508
O 2.54889854279 5.99747348503 6.11041479612
O 7.80962288279 5.97002382003 6.08069100612
O 1.95424554656 1.547240641855 8.322424017209999
O 7.214969886560001 1.519790976855 8.29270022721
O 3.4203324256800003 7.471558090184998 3.48213635119
O 8.68105676568 7.444108425185 3.45241256119
O 0.7824926380800001 6.043673967485001 3.5013740285899995
O 6.04321697808 6.016224302485001 3.47165023859
O 4.59208533416 2.9751247645550003 8.303186339809999
O 9.85280967416 2.947675099555 8.273462549809999
O 4.44704367135 0.01250140903 8.64027739292
O 9.70776801135 -0.01494825597 8.610553602919998
O 0.93123889465 9.00829495697 3.81898348708
O 6.19196323465 8.98084529197 3.78925969708
O 3.5383269798700003 4.50756225141 3.8177412148
O 8.799051319870001 4.48011258641 3.7880174248
O 1.83995558613 4.51323411459 8.6415196652
O 7.1006799261300015 4.48578444959 8.6117958752
