60   
   
In -0.00283299405 0.00349294125 2.0012548433
Al 5.12830909595 0.04013467625 2.0076803083
In -0.01260193905 0.01553756625 8.9021336133
Al 5.11854015095 0.05217930125 8.908559078299998
In -0.01670489595 0.02059630875 11.8005026967
Al 5.11443719405 0.05723804375 11.8069281617
In -0.00693595095 0.00855168375 4.8996239267
Al 5.12420613905 0.04519341875 4.9060493917
Al 2.54566270411842 1.51095732045078 6.602570461979781
Al 7.676804794118419 1.54759905545078 6.60899592697978
Al 2.53589375911842 1.5230019454507802 13.50344923197978
Al 7.667035849118419 1.5596436804507805 13.509874696979779
In 2.55132869221842 1.50397143795078 2.60006077537978
Al 7.682470782218419 1.5406131729507802 2.60648624037978
In 2.54155974721842 1.51601606295078 9.50093954537978
Al 7.672701837218421 1.55265779795078 9.507365010379779
In -0.0369760422184201 2.98178448704922 11.197474419620223
Al 5.09416604778158 3.01842622204922 11.20389988462022
In -0.0272070972184201 2.96973986204922 4.296595649620221
Al 5.10393499278158 3.00638159704922 4.30302111462022
In -0.0313100541184201 2.97479860454922 7.19496473302022
Al 5.09983203588158 3.01144033954922 7.20139019802022
In -0.0215411091184201 2.96275397954922 0.29408596302022
Al 5.10960098088158 2.99939571454922 0.30051142802022
O 1.54985158077 0.017124758205 3.452386300895
O 6.68099367077 0.053766493205 3.458811765895
O 1.76123723388 3.115803984975 3.4474964105350003
O 6.89237932388 3.152445719975 3.4539218755350003
O 9.47043248785 1.42008833932 3.46006402857
O 4.33929039785 1.38344660432 3.45363856357
O 0.7531154161199998 1.369951940025 10.350038784465
O 5.88425750612 1.406593675025 10.356464249465
O -1.82493774785 3.10230932068 10.34389663143
O 3.30620434215 3.13895105568 10.35032209643
O 3.56175261923 0.043606226795 10.355796704105002
O 8.69289470923 0.080247961795 10.362222169105
O 4.09834727893842 1.52458913740578 8.053701919574781
O 9.229489368938419 1.5612308724057802 8.06012738457478
O 1.77584239204842 0.16160168917578 8.05303437421478
O 6.90698448204842 0.19824342417578 8.059459839214782
O 1.75664400601842 2.8542692485207803 8.048528717249779
O 6.88778609601842 2.89091098352078 8.054954182249778
O 3.3211490042884204 2.8533270692257804 1.1495968631447802
O 8.45229109428842 2.8899688042257803 1.15602232814478
O 3.34034739031842 0.16065950988078 1.15410252010978
O 8.47148948031842 0.19730124488078 1.16052798510978
O 0.99864411739842 1.49033962099578 1.14892931778478
O 6.12978620739842 1.52698135599578 1.15535478278478
O 1.5157085326015796 2.99541630400422 12.64860587721522
O 6.64685062260158 3.03205803900422 12.655031342215219
O -0.8067963542884202 1.63242885577422 12.647938331855219
O 4.32434573571158 1.6690705907742205 12.65436379685522
O -0.8259947403184199 4.32509641511922 12.64343267489022
O 4.30514734968158 4.36173815011922 12.64985813989022
O 0.7385102579515798 4.324154235824221 5.744500820785221
O 5.869652347951581 4.3607959708242205 5.75092628578522
O 0.7577086439815799 1.6314866764792202 5.74900647775022
O 5.88885073398158 1.6681284114792203 5.755431942750221
O -1.58399462893842 2.96116678759422 5.74383327542522
O 3.5471474610615803 2.99780852259422 5.75025874042522
