40   
   
Al 0.93284823594 5.7806458023700005 -0.0157330907
Al 4.23989795906 3.0052538176300008 4.6875065807
Al 1.66867084778 1.39431285111 4.7003413219
Al 3.5040753472200006 7.39158676889 -0.0285678319
Al 3.5475317417600007 1.38660171329 7.39669228341
In 1.6448584609800003 7.410402361469998 2.68139347011
In 4.20836915936 5.769590824390001 2.67551863241
Al 0.98402104338 3.0274132503700004 7.40256712111
Al 1.6436523978800002 7.488679157700002 6.54295084411
In 3.54257766306 1.30484268386 1.83977566301
In 0.9794006474 3.08627054542 1.84534953191
In 4.20682941354 5.70725129614 6.53737697521
Al 0.8974574014500002 0.28091668962 9.40552997142
Al 4.309443357529999 8.5242899789 4.66606867362
Al 1.7328773227300005 4.6634878207 4.68371891562
Al 3.474023436250001 4.14171884782 9.38787972942
O 4.30124547874 5.8866044767700005 8.38273990789
O 0.89840000212 2.91450089487 3.69210229139
O 3.4624112245800003 1.48461384451 3.68577600049
O 1.7372342562800005 7.31649152713 8.389066198790001
O 2.7174732178200003 0.08481104973 5.91432712497
O 2.4641025137600003 8.70607977119 1.18746128487
O 5.021440081820001 4.46386623123 1.18715436997
O 0.16013564976 4.32702458969 5.91463403987
O 5.03025404077 7.33880770476 5.97517757459
O 0.15193770499 1.45243133948 1.29614675989
O 2.72287284389 2.94033302208 1.28357536639
O 2.45931890187 5.85090602216 5.98774896809
O 0.0984099026 7.2702627031499985 1.12382062723
O 5.08261826082 1.52031858593 5.82726918293
O 2.518440197 2.8798974740500003 5.83374595823
O 2.6625879664200007 5.9106838150300005 1.11734385193
O 1.88683791228 1.5063638941100002 8.146596174979999
O 3.3109595260400004 7.29369680757 3.41963825038
O 0.7402329388400002 5.89368032777 3.43202153838
O 4.45756449948 2.90638037391 8.13421288698
O 4.32349724289 0.0159222952 8.46110476225
O 0.87662736011 8.7854539168 3.74559871175
O 3.43363124545 4.402624052360001 3.74559276565
O 1.76649335755 4.398752159639999 8.46111070835
