80   
   
Ga 10.81726478733 5.667415e-06 1.186682197665
Al 10.81725557733 3.092422667415 1.186695497665
In 23.05433025733 1.2752415e-05 1.175946732665
Al 23.054321047329996 3.092429752415 1.175960032665
Al -0.0739930973300001 -2.352415e-06 4.638878607335
In -0.0740023073300001 3.092414647585 4.638891907335
Ga 12.16307237267 4.732585e-06 4.628143142335
Ga 12.16306316267 3.092421732585 4.628156442335
Ga 4.69872744733 1.546210624915 1.192056580165
Al 4.69871823733 4.638627624915 1.192069880165
Ga 16.935792917329998 1.546217709915 1.181321115165
Al 16.93578370733 4.638634709915 1.181334415165
In 6.044535032669999 1.5462096900850002 4.633517524835001
Ga 6.044525822669999 4.638626690084999 4.633530824835001
In 18.28160050267 1.5462167750850002 4.622782059835
Al 18.28159129267 4.638633775084999 4.622795359835
Al 9.26662492219 1.5462118722650002 3.994677365155
Ga 9.26661571219 4.638628872265 3.994690665155
Al 21.50369039219 1.5462189572650002 3.983941900155001
Ga 21.50368118219 4.638635957265 3.983955200155001
Ga 1.4766375578099995 1.546208442735 1.830896739845
Ga 1.4766283478099995 4.638625442735 1.830910039845
Al 13.713703027809999 1.546215527735 1.820161274845
Al 13.713693817809999 4.638632527735 1.820174574845
Ga 3.14809679219 -1.70235e-07 4.000038447655
In 3.14808758219 3.0924168297650003 4.000051747655
Ga 15.385162262189997 6.914765e-06 3.989302982655
In 15.385153052189997 3.0924239147650003 3.989316282655
Ga 7.59517489781 3.485235e-06 1.825522357345
Al 7.59516568781 3.0924204852350003 1.825535657345
Al 19.83224036781 1.0570235e-05 1.814786892345
In 19.83223115781 3.0924275702350004 1.814800192345
O 9.46726526183 4.211805e-06 2.541583240435
O 9.46725605183 3.092421211805 2.541596540435
O 21.70433073183 1.1296805e-05 2.530847775435
O 21.70432152183 3.092428296805 2.530861075435
O 1.27600642817 -8.96805e-07 3.283977564565
O 1.27599721817 3.092416103195 3.283990864565
O 13.51307189817 6.188195e-06 3.273242099565
O 13.51306268817 3.092423188195 3.273255399565
O 3.34872792183 1.5462091693050002 2.546957622935
O 3.34871871183 4.638626169305 2.546970922935
O 15.585793391829997 1.5462162543050002 2.536222157935
O 15.58578418183 4.638633254305 2.536235457935
O 7.39453455817 1.546211145695 3.278616482065
O 7.39452534817 4.638628145695 3.278629782065
O 19.63160002817 1.546218230695 3.267881017065
O 19.63159081817 4.638635230695 3.267894317065
O 8.888473203249998 2.560675e-06 5.185339567025
O 8.888463993249998 3.092419560675 5.185352867025
O 21.12553867325 9.645675e-06 5.174604102025
O 21.12552946325 3.0924266456750003 5.174617402025
O 1.85479848675 7.54325e-07 0.640221237975
O 1.85478927675 3.092417754325 0.640234537975
O 14.09186395675 7.839325e-06 0.629485772975
O 14.09185474675 3.092424839325 0.629499072975
O 2.76993586325 1.546207518175 5.1907139495250005
O 2.76992665325 4.638624518175 5.1907272495250005
O 15.007001333249997 1.546214603175 5.179978484525
O 15.00699212325 4.638631603175 5.179991784525
O 7.97332661675 1.546212796825 0.634860155475
O 7.97331740675 4.6386297968250005 0.634873455475
O 20.21039208675 1.546219881825 0.624124690475
O 20.21038287675 4.638636881825001 0.624137990475
O -1.06094512166 1.54620572723 4.33633183675
O -1.06095433166 4.63862272723 4.33634513675
O 11.176120348339996 1.54621281223 4.32559637175
O 11.176111138339996 4.63862981223 4.32560967175
O 11.804207601659998 1.54621458777 1.48924226825
O 11.804198391659998 4.63863158777 1.4892555682500002
O 24.04127307166 1.54622167277 1.47850680325
O 24.04126386166 4.63863867277 1.4785201032500002
O 5.057592218339999 7.6973e-07 4.33095745425
O 5.057583008339999 3.0924177697300004 4.33097075425
O 17.29465768834 7.85473e-06 4.32022198925
O 17.294648478339997 3.0924248547300004 4.32023528925
O 5.68567947166 2.54527e-06 1.49460335075
O 5.68567026166 3.0924195452700003 1.49461665075
O 17.92274494166 9.63027e-06 1.48386788575
O 17.922735731659998 3.0924266302700003 1.48388118575
