80   
   
In 7.3625324275 2.4507454600000003 7.356399907500002
Ga 2.4528824275 7.353107925 7.364991432500002
In 7.3556139325 7.361932630000002 2.4553276075
In 7.3590123374999985 7.356765435 7.3614509775
Ga 2.4494840225 7.358275120000002 2.4588680625
In 7.359134022499998 2.455912655 2.4502765375
In 2.4564025175 2.44708795 7.3599403625
Al 2.4530041125 2.452255145 2.4538169925
In 7.35931254612 4.572729686700001 4.905520284740001
In 2.44626414112 9.4802593467 0.00798843974
Al 7.355435408879998 5.245115598300001 8.386026e-05
Al 4.90401708846 7.357871646760001 4.576543130840001
Al 0.00480567346 2.44302696676 9.48115588584
In -0.00165063846 7.353511398240002 5.2473163641600005
Ga 4.57409059362 4.90167798182 7.36093642094
In 9.480342188619998 0.00448271182 2.4462215259400004
In 5.24484435138 -0.00384457182 7.355403849060002
Al 2.45270390388 5.2362908933000005 4.90974768526
In 7.358955498879999 0.3390956233 -0.00496720974
In 2.44978423112 4.574239371700001 0.00293736974
Al 4.90799936154 2.4511489332400003 5.2387248391600005
Al -0.00504904346 7.358678593240001 0.34119299416
In 0.00140726846 2.44819416176 4.57503251584
Al 5.23792585638 4.9073425981800005 2.4543315490600004
In 0.33871444138 -0.00750208182 7.35894430406
Al 4.57421227862 0.00082520182 2.4497619809400004
In 2.45622399388 0.3302709183 4.904696615260001
In 4.90460095654 2.45631612824 0.3326014691600001
In 0.33179594638 4.9036850881800005 2.4578720040600004
In 7.355792456119999 9.4787496617 4.91057135474
Ga 4.90741549346 7.352704451760002 9.48266650084
In 9.480220503619998 4.90533549182 7.35739596594
O 6.08530708538 3.83426357301 6.436393633980001
O 3.72812243886 8.736585077890004 8.287846509499998
O 8.631561474340002 5.98035738231 1.5306314939
O 6.08505012642 5.97134541679 8.283298287620001
O 6.43513508303 6.08422267563 3.838206725180001
O 8.284927977389998 3.725541116390001 8.740574370500001
O 1.52865643081 8.629442655610001 5.9834435259
O 8.281321633769998 6.083345002370001 5.9759453034200005
O 3.83618925374 6.433151058220001 6.087451346830001
O 8.7393643755 8.283952332420002 3.730870876550001
O 5.9805491551 1.5260388161800005 8.63204079085
O 5.97393834066 8.279409243180002 6.08780691077
O 3.72670936462 5.97475700699 3.37887433602
O 6.08389401114 1.07243550211 1.5274214605
O 1.1804549756599998 3.82866319769 8.284636476100001
O 3.72696632358 3.83767516321 1.5319696823800002
O 3.3768813669699997 3.724797904370001 5.977061244820001
O 1.52708847261 6.083479463610001 1.0746935995
O 8.283360019189999 1.17957792439 3.8318244441
O 1.5306948162299998 3.725675577630001 3.8393226665800007
O 5.97582719626 3.37586952178 3.72781662317
O 1.0726520745 1.52506824758 6.084397093450001
O 3.8314672949 8.28298176382 1.18322717915
O 3.838078109340001 1.52961133682 3.72746105923
O 1.1722586803799997 8.741793233010004 1.53886178898
O 8.63437403386 3.83938980789 3.3731316145
O 3.73235005934 1.06551270231 6.435244248900001
O 1.1790419014199998 1.06683512679 3.37566430262
O 1.5359236680299997 1.16937799563 8.742819480180001
O 3.37187957239 8.633070776390001 3.843042525500001
O 6.43490802581 3.732247385610001 1.0687286309
O 3.3753134087699994 1.17883471237 1.0683113184200002
O 8.742440848740001 1.53595578822 1.17273645183
O 3.8401529605 3.36910765242 8.63548363155
O 1.0675007500999998 6.4335684761800005 3.734508945850001
O 1.0679301156599998 3.37489895318 1.18017292577
O 8.639757769620001 1.06722734699 8.27640618102
O 1.17764241614 5.96963077211 6.442136355500001
O 6.07966639066 8.743507877690002 3.3800237211
O 8.63297454858 8.742185453210002 6.439603667380001
O 8.27609278197 8.639642584370002 1.0724484898200002
O 6.44013687761 1.17594980361 5.9722254445
O 3.37710842419 6.076773194390001 8.746539339100002
O 6.43670304123 8.63018586763 8.746956651580001
O 1.06957560126 8.273064791780001 8.642531518170001
O 5.9718634895 6.439912927580001 1.17978433845
O 8.744515699899999 3.3754521038200003 6.080759024150001
O 8.74408633434 6.434121626820001 8.63509504423
