80   
   
In 1.68307086168 7.63442484634 6.64969842799
In 6.920955286680001 7.620995111339998 6.62656381799
In 3.615389166759999 1.3301747205 1.86790457669
Al 8.85327359176 1.3167449855 1.84476996669
Al 1.00104313298 3.14567308348 1.8743712746300003
In 6.23892755798 3.1322433484799994 1.8512366646300005
In 4.29741689546 5.81892648336 6.64323173005
In 9.53530132046 5.80549674836 6.6200971200500005
Ga 0.952553022955 5.889573998355 -0.02075594393
Ga 6.190437447955 5.876144263354999 -0.04389055393
In 4.329238142045 3.0646001866450003 4.76319191393
In 9.567122567045 3.051170451645 4.7400573039300005
Al 1.706109311305 1.423710285985 4.77940531645
Al 6.943993736305 1.410280550985 4.7562707064500005
In 3.617988613695 7.556924259014998 9.54467287355
Al 8.855873038695 7.543494524014998 9.52153826355
Al 0.92291163744 0.2928089163599999 9.5674164474
Al 6.160796062439999 0.27937918136 9.5442818374
Ga 4.40110167404 8.68777270792 4.73749845816
Al 9.63898609904 8.674342972919998 4.7143638481600005
Al 1.77214798314 4.754563129819999 4.76017599636
In 7.010032408140001 4.74113339482 4.7370413863600005
Al 3.55186532834 4.22601849446 9.5447389092
Al 8.78974975334 4.21258875946 9.5216042992
Al 3.624818528765 1.417461612025 7.520940886080002
Ga 8.862702953765 1.404031877025 7.497806276080001
Al 1.681256716475 7.551900819614999 2.7213577182
Al 6.919141141475 7.538471084615 2.6982231082
In 4.295966804014999 5.879672436475 2.71448701178
Al 9.533851229015 5.866242701475 2.69135240178
In 1.010108441225 3.089689995165 7.527811592500002
In 6.247992866225 3.076260260165 7.504676982500001
O 4.395208122845 6.002971883225 8.520335306200002
O 9.633092547845 5.989542148225 8.4972006962
O 0.919836155515 2.972000144735 3.753271448720001
O 6.157720580515 2.958570409735 3.730136838720001
O 3.5350923236950003 1.514676731355 3.745794729580001
O 8.772976748695 1.501246996355 3.72266011958
O 1.7799519546650002 7.460295296604999 8.527812025340001
O 7.017836379664999 7.446865561604999 8.504677415340002
O 2.776705055405 0.090182319225 6.014480031360001
O 8.014589480404998 0.076752584225 5.991345421360001
O 2.516001253675 8.870818638654999 1.2000196314000002
O 7.753885678675 8.857388903655 1.1768850214000002
O 5.123976346655001 4.548095628474999 1.20062308186
O 10.361860771655 4.534665893474999 1.17748847186
O 0.168729962425 4.412905329405 6.013876580900001
O 5.406614387425 4.399475594405 5.9907419709
O 0.102504413055 7.408267340514999 1.13814950116
O 5.3403888380549995 7.394837605514998 1.11501489116
O 5.189524987865 1.5523102516049998 5.92304388608
O 10.427409412865 1.5388805166049997 5.899909276080001
O 2.574086792805 2.937998675065 5.93072260946
O 7.811971217805 2.924568940065 5.9075879994600005
O 2.717942608115 6.022578917055 1.13047077778
O 7.955827033115 6.009149182055 1.10733616778
O 5.13721442958 7.480730080159998 6.069516702890001
O 10.37509885458 7.467300345159998 6.046382092890001
O 0.15625340118 1.4807471642 1.3174525198300002
O 5.39413782618 1.4673174291999995 1.2943179098300002
O 2.77906368488 2.9962758325 1.3015926247300005
O 8.016948109879998 2.9828460975 1.2784580147300002
O 2.51440414588 5.96520141186 6.085376597990001
O 7.7522885708799985 5.95177167686 6.06224198799
O 1.931382002785 1.540310073225 8.28505797821
O 7.169266427785 1.5268803382249998 8.26192336821
O 3.381377710535 7.433233095294998 3.47114009683
O 8.619262135535 7.419803360294998 3.44800548683
O 0.758794960435 6.007248164395 3.48674748663
O 5.996679385435 5.993818429395 3.46361287663
O 4.553964752885 2.966295004125 8.26945058841
O 9.791849177885 2.952865269125 8.246315978410001
O 4.416970216659999 0.02154143928 8.604112213510001
O 9.65485464166 0.00811170428 8.580977603510004
O 0.89866635634 8.953801033719996 3.8036375324900007
O 6.1365507813399995 8.94037129872 3.7805029224900006
O 3.50627739556 4.4878080437 3.804644991430001
O 8.744161820559999 4.4743783087 3.78151038143
O 1.80935917744 4.4875344293 8.603104754570001
O 7.04724360244 4.4741046943 8.579970144570002
