80   
   
In 7.47209289 2.486483565 7.472753677499998
In 2.489606745 7.466193804999999 7.4775284274999985
Al 7.47016807 7.47172725 2.4955524725
In 7.470800445 7.467601979999999 7.4767862475
Al 2.48897437 7.470319075 2.4962946525
In 7.471460515 2.490608835 2.4915199025
Al 2.4908991900000004 2.48507539 7.473495857499999
Al 2.4902668150000005 2.48920066 2.4922620825
In 7.471218366260001 4.64038935528 4.98387886024
In 2.4880998462600004 9.62422486528 0.00741983524
In 7.47041021874 5.3219467297200005 0.00319351476
Al 4.979844406000001 7.469241045859999 4.6478165533
In 0.000575526 2.48258918586 9.625759938300002
In -0.001263291 7.46727183414 5.3260065267
Al 4.642128645900001 4.9762429291 7.475191520739998
In 9.6239824159 0.0006579591 2.48918299574
In 5.3208634341000005 -0.0046839741 7.471058014259999
In 2.48984889374 5.31641328472 4.98516946976
In 7.47170266374 0.34082831472 -0.00083905524
Ga 2.48939229126 4.64310645028 0.00338726524
In 4.981222854 2.48756159414 5.3212317767
In -0.001895666 7.4713971041399985 0.3447727517
Ga -5.6849e-05 2.48671445586 4.6445261633
In 5.318938614100001 4.980559710900001 2.49385680926
Ga 0.3396697341000001 -0.0060921491 7.471800194259998
In 4.642788715900001 -0.0007502159 2.48992517574
In 2.4911413387400003 0.33529486972 4.98113689976
In 4.980590479 2.49168686414 0.3399980017
In 0.3377449141000001 4.979151535900001 2.49459898926
In 7.46992592126 9.621507770280001 4.98791143024
In 4.980476781 7.465115775859998 9.6290503283
In 9.6233223459 4.9776511041 7.474449340739999
O 6.176499172010001 3.89156838329 6.53761187934
O 3.78447152401 8.870459772770001 8.414944595139998
O 8.765524014990001 6.06819353323 1.5577503712599998
O 6.17617343899 6.061784910709999 8.412313979259999
O 6.534218019850001 6.17520839906 3.89935145869
O 8.40839959965 3.78067576366 8.878370540409998
O 1.5526279639500002 8.762183182140001 6.07400850099
O 8.40742256655 6.1739392551400005 6.07089032491
O 3.8943819305600007 6.5312132185300005 6.18144022808
O 8.87478613124 8.40750204717 3.7912220824
O 6.06780366376 1.54856362743 8.7673256306
O 6.0656964244400005 8.404727706870004 6.182632883919999
O 3.78456808799 6.06523425671 3.43143645066
O 6.17659573599 1.0863428672300002 1.55410373486
O 1.19554324501 3.8886091067700006 8.411297958739999
O 3.78489382101 3.895017729290001 1.55673435074
O 3.42684924015 3.78159424094 6.06969687131
O 1.55266766035 6.17612687634 1.09067778959
O 8.408439296050004 1.19461945786 3.89503982901
O 1.55364469345 3.78286338486 3.89815800509
O 6.06668532944 3.42558942147 3.78760810192
O 1.08628112876 1.54930059283 6.1778262476
O 3.8932635962400006 8.40823901257 1.2017226994
O 3.895370835560001 1.55207493313 3.78641544608
O 1.19338065201 8.87540389329 1.56115285434
O 8.76632529401 3.89487480277 3.42893607014
O 3.78625513499 1.08154167323 6.53569375626
O 1.19563980899 1.08338359071 3.42778981426
O 1.5549491398500002 1.18855653906 8.87729484369
O 3.42528107965 8.76451127366 3.90191151541
O 6.534481733950002 3.78659821214 1.08799997599
O 3.42688893655 1.19553793514 1.08636615991
O 8.876235700560002 1.55562824853 1.19543170308
O 3.89551725124 3.42085018717 8.7691654674
O 1.08468514376 6.53239913743 3.7908666056
O 1.0851627944400002 3.42632638687 1.19810871892
O 8.76768660799 1.08139874671 8.40789547566
O 1.19474196599 6.06192783723 6.54011225986
O 6.174812125010001 8.87526096677 3.4333545737399995
O 8.765427451010002 8.87341904929 6.54125851574
O 8.406118120150001 8.76824610094 1.09175348631
O 6.535786180350001 1.19229136634 6.06713681459
O 3.42658552605 6.17020442786 8.88104835401
O 6.534178323450001 8.761264704860002 8.88268217009
O 1.0848315594400002 8.40117439147 8.773616626919999
O 6.065550008760001 6.53595245283 1.1998828626
O 8.876382116240002 3.42440350257 6.1781817244
O 8.875904465560001 6.530476253130001 8.770939611079998
