80   
   
In 10.923035971765 8.50814e-06 1.2003846299099998
Ga 10.923028966765 3.16739935814 1.2003797699099998
In 23.289732056764997 1.931814e-05 1.1649106699099998
In 23.289725051765 3.16741016814 1.1649058099099998
Ga -0.1089777867650001 -4.12814e-06 4.77697292009
Ga -0.1089847917650002 3.16738672186 4.77696806009
Ga 12.257718298234998 6.68186e-06 4.74149896009
In 12.257711293234996 3.16739753186 4.74149410009
Al 4.739684426764999 1.5836985281399998 1.21811917991
Ga 4.739677421764999 4.75108937814 1.21811431991
Ga 17.106380511765 1.5837093381399998 1.18264521991
Ga 17.106373506765 4.75110018814 1.18264035991
Ga 6.074366753234999 1.58369670186 4.7592335100900005
In 6.074359748235 4.75108755186 4.75922865009
Al 18.441062838234995 1.58370751186 4.7237595500900005
In 18.441055833234994 4.75109836186 4.72375469009
Al 9.335278305585 1.58370010523 4.0949663855
Ga 9.335271300585 4.75109095523 4.0949615255000005
In 21.701974390584997 1.58371091523 4.0594924255
Ga 21.701967385585 4.75110176523 4.0594875655
In 1.478772874415 1.58369512477 1.8823863045
Ga 1.478765869415 4.75108597477 1.8823814445
Ga 13.845468959415 1.5837059347699998 1.8469123445
In 13.845461954414999 4.75109678477 1.8469074845
Ga 3.151933765585 -7.2477e-07 4.1127057955
Ga 3.1519267605850003 3.16739012523 4.1127009355
Ga 15.518629850584999 1.008523e-05 4.0772318355
In 15.518622845584998 3.16740093523 4.0772269755
Ga 7.662124419415 5.10477e-06 1.8646517545
Ga 7.662117414414999 3.16739595477 1.8646468945
In 20.028820504415002 1.591477e-05 1.8291777945
Ga 20.028813499415 3.16740676477 1.8291729345
O 9.548754899994998 6.12996e-06 2.59827040495
O 9.548747894994996 3.16739697996 2.59826554495
O 21.915450984995 1.693996e-05 2.56279644495
O 21.915443979995 3.16740778996 2.56279158495
O 1.2653032850049997 -1.74996e-06 3.37908714505
O 1.2652962800049996 3.16738910004 3.3790822850499995
O 13.631999370005 9.06004e-06 3.34361318505
O 13.631992365005 3.16739991004 3.3436083250499995
O 3.3654033549949998 1.58369614996 2.61600495495
O 3.365396349995 4.75108699996 2.61600009495
O 15.732099439994998 1.58370695996 2.58053099495
O 15.732092434994998 4.75109780996 2.58052613495
O 7.448647825005 1.58369908004 3.3613477350499994
O 7.448640820005 4.751089930039999 3.36134287505
O 19.815343910004998 1.58370989004 3.32587377505
O 19.815336905004997 4.751100740039999 3.32586891505
O 8.944343499974998 3.30365e-06 5.3217992873
O 8.944336494974996 3.16739415365 5.3217944273
O 21.311039584975003 1.411365e-05 5.2863253273
O 21.311032579975002 3.16740496365 5.2863204673
O 1.869714685025 1.07635e-06 0.6555582627
O 1.869707680025 3.16739192635 0.6555534027
O 14.236410770025 1.188635e-05 0.6200843027
O 14.236403765025 3.16740273635 0.6200794427
O 2.760991954975 1.58369332365 5.3395338373
O 2.760984949975 4.75108417365 5.3395289773
O 15.127688039974998 1.5837041336499995 5.3040598773
O 15.127681034974994 4.75109498365 5.3040550173
O 8.053059225024999 1.58370190635 0.6378188526999999
O 8.053052220024998 4.75109275635 0.6378139926999999
O 20.419755310025 1.58371271635 0.6023448927
O 20.419748305025 4.75110356635 0.6023400327
O -1.10414667786 1.58369069075 4.46738948609
O -1.1041536828599998 4.75108154075 4.46738462609
O 11.262549407139998 1.58370150075 4.43191552609
O 11.262542402139998 4.75109235075 4.43191066609
O 11.91819785786 1.58370453925 1.50996320391
O 11.918190852859999 4.75109538925 1.50995834391
O 24.28489394286 1.58371534925 1.47448924391
O 24.284886937859998 4.75110619925 1.47448438391
O 5.07920486714 6.7075e-07 4.44965493609
O 5.07919786214 3.16739152075 4.44965007609
O 17.44590095214 1.148075e-05 4.41418097609
O 17.44589394714 3.16740233075 4.41417611609
O 5.73485331786 3.70925e-06 1.52770261391
O 5.73484631286 3.16739455925 1.52769775391
O 18.10154940286 1.451925e-05 1.49222865391
O 18.10154239786 3.16740536925 1.49222379391
