40   
   
Ga 3.2042340158054494 -0.017020949540921 2.8675459566380006
Al 6.354083544194549 -0.039117200459079 10.940654133362
Al -0.01812809875 -0.0016917675 1.73518749875
Al -0.12689669125 -0.0118423725 12.14631249125
Al 6.444724037944549 -0.030658362959079 2.2647166396119998
Al 3.1135935220554503 -0.025479787040921 11.543483450388
Al 10.469902572055448 1.377785352959079 4.549132900388
Al 8.804337122944549 1.3803746420409213 9.188516029611998
Al 3.9526659479445496 1.401676647040921 9.225165979612
Al 5.61823139705545 1.3990873579590788 4.585782850388
Al 6.3903398372777245 -0.0357336660204605 7.470279273944
Al 3.1679777227222745 -0.0204044839795395 6.337920816055999
Al -0.072512395 -0.00676707 6.940749995
Al 4.851671175 -0.021302005 -0.03664995
Al 2.43212548 1.417800075 -0.016950605
Al 7.283796654999999 1.39649807 -0.053600555
O 4.879862250377725 -0.0249921238204605 3.456372260844
O 4.678455309622275 -0.0311460261795395 10.351827829156
O 3.223087239955698 -0.0152615112055796 1.0629508191230008
O 6.3352303200443005 -0.0408766387944204 12.745249270877
O 7.214702614144301 1.3360959486055797 3.4400996807769992
O 2.355691539455698 1.3503919701944205 10.370739199623
O 7.207865905855698 1.4433660513944204 10.334199199223
O 12.066876980544302 1.4290700298055796 3.403559680376999
O -0.03698132145 -0.0034512057 3.53978249745
O -0.10804346855 -0.0100829343 10.341717492550002
O 8.009586016677725 -0.0363246032204605 1.0730612945440003
O 1.5487315433222748 -0.0198135467795395 12.735138795456
O 10.538996515877725 1.4381874747795391 1.0554326653440005
O 8.7357464675557 1.4342486059944204 12.682326213523002
O 3.8835720041222745 1.3412745252204603 12.718866214656002
O 5.686822052444301 1.3452133940055793 1.0919726664769993
O 8.065968071849998 -0.0437048403 8.059105578149998
O 1.49234948815 -0.0124333097 5.74909451185
O 6.409192964394549 -0.033974227259079 5.665684137162
O 3.1491245956054494 -0.022163922740921 8.142515952838004
O 10.40080853265 1.3173832316999998 8.04283299735
O 8.872927970949998 1.3265006771 5.69470598305
O 4.02175998735 1.4620787683 5.731465882649999
O 5.54964054905 1.4529613229000002 8.07959289695
