40   
   
In 11.915042289763294 2.0278395723451497 2.911023895904664
Ga 8.447125116825353 1.9722619976073728 11.466723917527283
Al 5.098577714845217 2.006647823664774 1.7745836320207489
In 5.026955789845218 1.9526697461647735 12.72328799202075
Al 8.506810054325353 2.017243728857373 2.3428036175272844
Al 11.855357352263292 1.9828578410951492 12.034944195904664
In 9.349798462263292 0.5122080460951497 4.758442800904663
Al 0.7874383643253515 0.4542312238573729 9.724636607527286
Al 6.784788402263294 1.9984512860951495 4.795869860904664
Ga 3.3407452043253514 1.9608664038573729 9.702001762527283
Al 8.470999090870393 1.9902546893876651 7.817155943510009
In 11.891168315718252 2.0098468805648566 6.5605918699219385
Al 5.062766752345218 1.9796587849147735 7.248935812020749
In 7.675524762345217 0.5294009299147736 -0.0876274879792512
Al 2.557207862345217 0.5090089899147736 -0.0275655829792512
Al 10.228831602345217 2.0360361099147735 -0.1102623329792512
O 7.685379743470394 0.5712818606876653 3.5861665659100086
O 2.4513889543182525 0.5148725460648576 10.897504531121939
O 11.927456757718252 2.0371957731648567 1.0132483275219388
O 8.434710648870393 1.9629057967876653 13.364499485910008
O 2.5675309722703923 0.4311747838876653 3.645636782310009
O 7.570173983118253 0.4155493492648575 10.83685093752194
O 10.136554309870393 2.0176516334876653 3.564437114710009
O 10.225613096718252 1.9824499364648576 10.813310698721937
O 5.086163298911353 1.9972916536974767 3.672359053968052
O 5.039370307911353 1.9620259763974768 10.825512569168053
O 4.221626683270393 0.4499352355876652 1.1447106511100094
O 5.916078272118253 0.3967888975648575 13.337777068721936
O 9.339475454470392 0.5900423123876654 1.0852404347100093
O 11.033927043318252 0.5368959743648575 13.278306852321938
O 6.877065796870393 2.0168358227876646 1.1211704123100092
O 13.485101609718253 1.9832657471648567 13.256577401121936
O 4.241336493511354 0.5336969475974772 8.492298613968051
O 5.895432204511355 0.5524573992974773 5.991372482768052
O 8.483413558825353 1.9996108902073728 5.919380375127285
O 11.878753847763294 2.0004906797451496 8.458367438304665
O 9.360121522311353 0.4343737507974773 8.431645020368052
O 0.7775834333113548 0.4123503224974773 6.050842699168052
O 6.692511059911354 1.980066720397477 8.47056916276805
O 3.4330225469113542 1.9792509096974769 6.027302460368052
