80   
   
In -0.0211576575 -0.04327816 6.12402609
In -0.0634729725 -0.12983448 18.37207827
In 4.9476430625 2.844161295 6.160778875
Al 4.9053277475 2.757604975 18.408831055
In 3.2965209375 -0.033825195 6.13540998
Ga 3.2542056225 -0.120381515 18.38346216
Ga 1.6299644674999998 2.83470833 6.149394985
Ga 1.5876491524999998 2.74815201 18.397447165
Ga 0.0 0.0 0.0
Ga -0.042315315 -0.08655632 12.24805218
In 4.96880072 2.887439455 0.036752785
In 4.926485405 2.800883135 12.284804965
In 3.317678595 0.009452965 0.01138389
In 3.27536328 -0.077103355 12.25943607
Ga 1.651122125 2.87798649 0.025368895
Al 1.60880681 2.79143017 12.273421075000002
Ga -0.0157230959385 1.8936760409995 3.07512969987
Ga -0.0580384109385 1.8071197209995 15.32318187987
Ga -1.6822795659385 4.7622095659995 3.08911470487
Al -1.7245948809385 4.6756532459995 15.33716688487
In 3.3019554990615 1.9031290059995 3.08651358987
In 3.2596401840615 1.8165726859995 15.33456576987
In 1.6353990290615 4.7716625309995 3.10049859487
In 1.5930837140615 4.685106210999501 15.34855077487
Al 1.6245299059385 0.8977541290005 9.19829137513
Ga 1.5822145909385 0.8111978090005 21.44634355513
In -0.0420265640614998 3.7662876540005 9.21227638013
Al -0.0843418790614998 3.6797313340005 21.46032856013
Ga 4.9422085009385 0.9072070940005 9.20967526513
Al 4.8998931859385 0.8206507740005 21.45772744513
In 3.2756520309385007 3.7757406190005 9.22366027013
Al 3.2333367159385005 3.6891842990005 21.47171245013
O -0.022658576067 1.8794894601515 5.082585452172
O -0.064973891067 1.7929331401514998 17.330637632172
O -1.689215046067 4.7480229851515 5.096570457172
O -1.7315303610670003 4.6614666651515 17.344622637171998
O 3.295020018933 1.8889424251515 5.093969342172
O 3.252704703933 1.8023861051515 17.342021522172
O 1.628463548933 4.7574759501515 5.107954347172
O 1.5861482339329998 4.6709196301515 17.356006527172
O 1.631465386067 0.9119407098485 7.190835622828
O 1.589150071067 0.8253843898484999 19.438887802828
O -0.0350910839329998 3.7804742348485 7.204820627827999
O -0.0774063989329998 3.6939179148485 19.452872807828
O 4.949143981067 0.9213936748485 7.202219512827999
O 4.906828666067001 0.8348373548485 19.450271692828
O 3.2825875110670006 3.7899271998485 7.2162045178279985
O 3.2402721960670005 3.7033708798485 19.464256697828
O 1.61759442581 0.8835675481524999 11.205747127432
O 1.57527911081 0.7970112281525 23.453799307432
O -0.0489620441899998 3.7521010731525 11.219732132432
O -0.0912773591899998 3.6655447531525 23.467784312432
O 4.93527302081 0.8930205131525 11.217131017432001
O 4.89295770581 0.8064641931525001 23.465183197432
O 3.2687165508100007 3.7615540381525 11.231116022432
O 3.2264012358100005 3.6749977181525 23.479168202432
O -0.00878761581 1.9078626218475 1.067673947568
O -0.05110293081 1.8213063018475 13.315726127568
O -1.6753440858100002 4.7763961468475 1.081658952568
O -1.71765940081 4.6898398268475 13.329711132568
O 3.30889097919 1.9173155868475 1.079057837568
O 3.26657566419 1.8307592668475 13.327110017568
O 1.64233450919 4.7858491118475 1.093042842568
O 1.60001919419 4.6992927918475 13.341095022568
O -0.01057882875 -0.02163908 3.062013045
O -0.05289414375 -0.1081954 15.310065225
O 4.95822189125 2.865800375 3.09876583
O 4.91590657625 2.779244055 15.34681801
O 3.30709976625 -0.012186115 3.073396935
O 3.26478445125 -0.098742435 15.321449115
O 1.64054329625 2.85634741 3.08738194
O 1.59822798125 2.76979109 15.33543412
O -0.03173648625 -0.06491724 9.186039135
O -0.07405180125 -0.15147356 21.434091315
O 4.93706423375 2.822522215 9.22279192
O 4.89474891875 2.735965895 21.4708441
O 3.28594210875 -0.055464275 9.197423025
O 3.24362679375 -0.142020595 21.445475205
O 1.61938563875 2.81306925 9.21140803
O 1.57707032375 2.72651293 21.45946021
