40   
   
In -0.005459994234014 3.668807919812632 15.002244543216062
In 1.6007202082655785 2.75206984996037 2.613088560504416
In 3.1837988682655785 -0.0141809750396297 2.613035480504416
In -1.5864663967344217 2.7642693399603706 2.608607270504416
In 3.1865739909684354 1.8234428702269976 5.875257251279521
In -0.0059285392344214 -0.0034675987896297 4.5649697942544165
In -1.5862320765315647 4.600407071476998 7.827244645029522
Ga -0.003153416531565 1.8341562464769976 7.827191565029524
Ga 1.600954528468435 4.588207581476998 7.831725935029524
In 0.007244018265986 3.676238488562632 5.220166524466062
In -0.000378389234014 3.671780147312632 11.089413335716062
In 3.1814923859684354 1.8204706427269977 9.78808845877952
In 4.767346073265986 0.8918437185626318 13.050257149466065
In 3.1842674132659865 3.658094543562632 13.05031022946606
Al 1.580159468265986 0.9040432085626318 13.04577585946606
Ga -0.0135509467344214 -0.0079259400396297 10.434216605504416
O 4.718953537568435 0.937786553326998 1.3377900777795215
O 3.199198023968436 3.5933873453269984 1.3378410345795215
O 1.659254396768435 0.949498063726998 1.3334880393795214
O -0.0185309196344214 -0.0108387229896297 14.268791188854417
O 0.012223991165986 3.679151271512632 1.3855919411160624
O 1.6491128393684351 2.706126959626998 14.32555563227952
O 3.1688683529684347 0.0505261676269979 14.32550467547952
O 4.708811980168435 2.694415449226998 14.32985767067952
O 1.5320011573659862 2.7861238304126323 6.551946162216063
O 0.0122456437659865 5.441724622412632 6.551997119016063
O -1.5276979834340136 2.7978353408126324 6.547644123816062
O 3.1892164255684348 1.8249884285269975 3.840585023379521
O -0.0085709738344214 -0.0050131570896297 6.599642022154416
O -1.5175131208340138 4.566353146712632 3.8883868867160634
O 0.0022423927659864 1.910752354712632 3.8883359299160634
O 1.5421860199659867 4.554641636312632 3.892688925116063
O -1.654951127634421 4.634461051810371 11.766102403254417
O -0.0085493212344213 1.7575601938103704 11.766047200054416
O 1.6597229415655794 4.621773582210372 11.770762944854416
O 0.002264045365986 3.673325705612632 9.05474110781606
O 3.1788499513684347 1.818925084426998 11.82276068667952
O 4.836065124165578 0.8577897381103704 9.111399547754417
O 3.1896633177655787 3.7346905961103714 9.111454750954415
O 1.5213910549655787 0.8704772077103704 9.106739006154417
