80   
   
Ga 10.937215217915 9.634425e-06 1.189646820785
In 10.937207557915002 3.149910929425 1.189642510785
In 23.312161802915 2.1559425e-05 1.155401785785
In 23.312154142915002 3.149922854425 1.155397475785
In -0.0823234029150001 -3.589425e-06 4.731110864215
Ga -0.0823310629150002 3.149897705575 4.731106554215001
Ga 12.292623182084998 8.335575e-06 4.6968658292150005
Al 12.292615522085 3.149909630575 4.696861519215001
Al 4.749738095414999 1.574954319425 1.206767183285
Ga 4.749730435415 4.724855614425 1.206762873285
In 17.124684680414994 1.574966244425 1.172522148285
Ga 17.124677020415003 4.724867539425 1.172517838285
Ga 6.105146059585 1.574953020575 4.7139861917150006
Ga 6.105138399584999 4.724854315575 4.713981881715001
Ga 18.480092644585 1.574964945575 4.679741156715001
In 18.480084984584998 4.724866240575 4.6797368467150005
Ga 9.364568675765 1.574956642745 4.056329636485001
Al 9.364561015765 4.724857937745 4.056325326485001
In 21.739515260765 1.5749685677449998 4.022084601485001
Ga 21.739507600765 4.724869862745 4.0220802914850005
Ga 1.490315479235 1.5749506972549998 1.864423738515
Ga 1.490307819235 4.724851992255 1.864419428515
Ga 13.865262064235 1.574962622255 1.830178703515
In 13.865254404235 4.724863917255 1.830174393515
Ga 3.1770992132650004 3.2745e-08 4.073454308985001
Ga 3.177091553265001 3.149901327745 4.073449998985001
Ga 15.552045798264999 1.1957745e-05 4.0392092739850005
Ga 15.552038138264999 3.149913252745 4.039204963985001
Ga 7.677792601735 6.012255e-06 1.847303376015
In 7.677784941735002 3.149907307255 1.847299066015
Ga 20.052739186735003 1.7937255e-05 1.813058341015
Ga 20.052731526735002 3.149919232255 1.813054031015
O 9.569816891305 7.292415e-06 2.5740155446950004
O 9.569809231305 3.149908587415 2.5740112346950004
O 21.944763476305 1.9217415e-05 2.5397705096950003
O 21.944755816304998 3.149920512415 2.5397661996950003
O 1.285074923695 -1.247415e-06 3.346742140305
O 1.285067263695 3.149900047585 3.346737830305
O 13.660021508695 1.0677585e-05 3.312497105305
O 13.660013848695 3.149911972585 3.312492795305
O 3.382339768805 1.5749519774149998 2.591135907195
O 3.382332108805 4.724853272415 2.591131597195
O 15.757286353804998 1.5749639024149995 2.5568908721950003
O 15.757278693804999 4.724865197414999 2.5568865621950003
O 7.472544386195 1.574955362585 3.329617467805
O 7.472536726195002 4.724856657585 3.329613157805
O 19.847490971195 1.574967287585 3.295372432805
O 19.847483311195003 4.724868582585 3.295368122805
O 8.980231653175 4.724175e-06 5.271357816575001
O 8.980223993175 3.149906019175 5.271353506575
O 21.355178238175 1.6649175e-05 5.237112781575
O 21.355170578175002 3.149917944175 5.2371084715750005
O 1.874660161825 1.320825e-06 0.6493998684250001
O 1.874652501825 3.149902615825 0.6493955584250001
O 14.249606746825 1.3245825e-05 0.6151548334250001
O 14.249599086825 3.149914540825 0.6151505234250001
O 2.7927545306750003 1.5749494091749998 5.288478179075001
O 2.792746870675 4.724850704175 5.288473869075
O 15.167701115675001 1.574961334175 5.254233144075
O 15.167693455675002 4.724862629175 5.2542288340750005
O 8.062129624324998 1.574957930825 0.632275195925
O 8.062121964324998 4.724859225825 0.632270885925
O 20.437076209325 1.5749698558249998 0.598030160925
O 20.437068549324998 4.724871150825 0.598025850925
O -1.07990473777 1.57494632636 4.42442788582
O -1.07991239777 4.72484762136 4.424423575820001
O 11.29504184723 1.57495825136 4.3901828508200005
O 11.29503418723 4.72485954636 4.39017854082
O 11.93478889277 1.57496101364 1.4963254891800002
O 11.93478123277 4.724862308640001 1.4963211791800002
O 24.30973547777 1.57497293864 1.46208045418
O 24.30972781777 4.7248742336400005 1.46207614418
O 5.10757238473 1.64136e-06 4.40730752332
O 5.10756472473 3.14990293636 4.4073032133200005
O 17.48251896973 1.356636e-05 4.37306248832
O 17.482511309729997 3.14991486136 4.37305817832
O 5.74731943027 4.40364e-06 1.5134501616800002
O 5.7473117702700005 3.14990569864 1.5134458516800002
O 18.12226601527 1.632864e-05 1.47920512668
O 18.12225835527 3.14991762364 1.47920081668
