80   
   
Ga 10.84215391839 4.552115e-06 1.2199460942899998
Ga 10.84214750839 3.175854302115 1.2199479892899998
Ga 23.13152687839 1.1037115e-05 1.19253125429
Al 23.13152046839 3.1758607871149995 1.19253314929
In -0.1571034083900001 -4.617115e-06 4.82515703571
Ga -0.15710981839 3.175845132885 4.82515893071
Ga 12.13226955161 1.867885e-06 4.79774219571
Al 12.13226314161 3.175851617885 4.79774409071
Ga 4.69746423339 1.587926184615 1.2336544617899998
Ga 4.69745782339 4.763775934615 1.23365635679
Al 16.986837193390002 1.5879326696149998 1.20623962179
Ga 16.98683078339 4.763782419615 1.2062415167899998
Ga 5.987579866609999 1.587923500385 4.81145056321
Al 5.987573456609999 4.763773250385 4.81145245821
In 18.276952826610003 1.5879299853849995 4.78403572321
Ga 18.27694641661 4.763779735385 4.78403761821
In 9.234794253659999 1.587925835585 4.14269239448
In 9.23478784366 4.763775585585 4.1426942894800005
In 21.52416721366 1.5879323205849998 4.11527755448
In 21.52416080366 4.763782070585 4.11527944948
In 1.45024984634 1.587923849415 1.90241263052
In 1.45024343634 4.763773599415 1.90241452552
In 13.739622806340002 1.5879303344149998 1.87499779052
In 13.73961639634 4.763780084415 1.87499968552
In 3.0901109786600003 -2.281915e-06 4.15639886698
Ga 3.09010456866 3.175847468085 4.1564007619800005
In 15.379483938659996 4.203085e-06 4.12898402698
Al 15.379477528659997 3.175853953085 4.12898592198
In 7.59493953134 2.216915e-06 1.88870426302
Al 7.594933121340001 3.175851966915 1.88870615802
Al 19.88431249134 8.701915e-06 1.86128942302
In 19.88430608134 3.175858451915 1.86129131802
O 9.46222252727 2.500745e-06 2.63101828021
O 9.46221611727 3.175852250745 2.63102017521
O 21.75159548727 8.985745e-06 2.60360344021
O 21.75158907727 3.175858735745 2.60360533521
O 1.2228279827299997 -2.565745e-06 3.41408484979
O 1.2228215727299996 3.175847184255 3.41408674479
O 13.51220094273 3.919255e-06 3.3866700097899995
O 13.51219453273 3.175853669255 3.38667190479
O 3.317532842270001 1.587924133245 2.64472664771
O 3.3175264322700007 4.763773883245 2.64472854271
O 15.60690580227 1.587930618245 2.61731180771
O 15.606899392269996 4.763780368245 2.61731370271
O 7.367511257729999 1.587925551755 3.40037837729
O 7.36750484773 4.763775301755 3.40038027229
O 19.65688421773 1.5879320367549998 3.3729635372899995
O 19.65687780773 4.7637817867550005 3.37296543229
O 8.833779441099999 -4.14525e-07 5.3816496019
O 8.8337730311 3.175849335475 5.3816514969
O 21.1231524011 6.070475e-06 5.3542347619
O 21.1231459911 3.175855820475 5.3542366569
O 1.8512710689000005 3.49525e-07 0.6634535281
O 1.8512646589 3.175850099525 0.6634554230999999
O 14.1406440289 6.834525e-06 0.6360386881
O 14.1406376189 3.1758565845249995 0.6360405831
O 2.6890897561000005 1.5879212179749995 5.3953579694
O 2.6890833461000003 4.763770967975 5.3953598644
O 14.9784627161 1.587927702975 5.3679431294
O 14.9784563061 4.763777452975 5.3679450244
O 7.9959543438999985 1.5879284670249998 0.6497470556
O 7.9959479339 4.763778217025 0.6497489505999999
O 20.2853273039 1.587934952025 0.6223322156
O 20.2853208939 4.763784702025 0.6223341106
O -1.14285729351 1.5879200342899995 4.51177213985
O -1.14286370351 4.76376978429 4.51177403485
O 11.14651566649 1.5879265192899998 4.48435729985
O 11.14650925649 4.763776269289999 4.48435919485
O 11.827901393509999 1.5879296507099998 1.53333288515
O 11.82789498351 4.76377940071 1.53333478015
O 24.11727435351 1.58793613571 1.50591804515
O 24.11726794351 4.76378588571 1.50591994015
O 5.00183239149 -1.59821e-06 4.49806377235
O 5.00182598149 3.17584815179 4.49806566735
O 17.291205351490003 4.88679e-06 4.47064893235
O 17.291198941490002 3.17585463679 4.47065082735
O 5.68321811851 1.53321e-06 1.54703935765
O 5.68321170851 3.17585128321 1.54704125265
O 17.97259107851 8.01821e-06 1.51962451765
O 17.972584668509995 3.17585776821 1.51962641265
