80   
   
Ga 10.840132674235 5.6865e-08 1.29443385862
In 10.840131894235 3.3381285118650004 1.29441836362
In 23.181284839235 2.791865e-06 1.24047268862
In 23.181284059235 3.338131246865 1.24045719362
In -0.342759259235 -9.171865e-06 5.20518820138
In -0.3427600392349999 3.338119283135 5.20517270638
Ga 11.998392905765 -6.436865e-06 5.15122703138
In 11.998392125765 3.338122018135 5.15121153638
In 4.669556201735 1.669062916865 1.32140669612
In 4.669555421735 5.007191371865 1.32139120112
In 17.010708366735003 1.669065651865 1.26744552612
In 17.010707586735 5.0071941068650005 1.26743003112
Ga 5.827816433264999 1.669056423135 5.17819986888
In 5.827815653265 5.007184878135001 5.178184373880001
In 18.168968598265 1.669059158135 5.12423869888
In 18.168967818265 5.007187613135001 5.124223203880001
In 9.114076358264999 1.669058398535 4.450369004310001
In 9.114075578264998 5.007186853535 4.45035350931
In 21.455228523265 1.669061133535 4.396407834310001
In 21.455227743265 5.007189588535 4.39639233931
In 1.383296276735 1.6690609414650002 2.04923756069
In 1.383295496735 5.007189396465001 2.04922206569
In 13.724448441735 1.6690636764650002 1.99527639069
In 13.724447661735 5.0071921314650005 1.99526089569
In 2.9435006657650007 -7.196465e-06 4.477357336810001
In 2.943499885765001 3.338121258535 4.47734184181
In 15.284652830764998 -4.461465e-06 4.423396166810001
In 15.284652050764999 3.3381239935350004 4.42338067181
In 7.553872749235 -1.918535e-06 2.02226472319
In 7.553871969234998 3.338126536465 2.02224922819
In 19.895024914235 8.16465e-07 1.96830355319
In 19.895024134235 3.338129271465 1.96828805819
O 9.400401526705 -2.916605e-06 2.81928998392
O 9.400400746705 3.3381255383950004 2.81927448892
O 21.741553691704997 -1.81605e-07 2.76532881392
O 21.741552911705 3.338128273395 2.76531331892
O 1.096971888295 -6.198395e-06 3.68033207608
O 1.096971108295 3.338122256605 3.68031658108
O 13.438124053295 -3.463395e-06 3.62637090608
O 13.438123273295 3.338124991605 3.62635541108
O 3.2298250542050004 1.6690599433950002 2.84626282142
O 3.2298242742050007 5.007188398395 2.84624732642
O 15.570977219204998 1.6690626783950002 2.79230165142
O 15.570976439204998 5.007191133395 2.79228615642
O 7.267547580795 1.669059396605 3.65334374358
O 7.267546800794999 5.007187851605001 3.65332824858
O 19.608699745795 1.669062131605 3.59938257358
O 19.608698965795 5.007190586605001 3.59936707858
O 8.663898970275001 -8.262775e-06 5.7876314977500005
O 8.663898190275 3.3381201922250003 5.78761600275
O 21.005051135275 -5.527775e-06 5.7336703277500005
O 21.005050355275003 3.338122927225 5.73365483275
O 1.833474444725 -8.52225e-07 0.71199056225
O 1.833473664725 3.338127602775 0.71197506725
O 14.174626609725 1.882775e-06 0.65802939225
O 14.174625829724999 3.338130337775 0.65801389725
O 2.4933224977750004 1.6690545972250002 5.81460433525
O 2.4933217177750007 5.007183052225 5.81458884025
O 14.834474662775001 1.669057332225 5.76064316525
O 14.834473882774999 5.007185787225 5.76062767025
O 8.004050137224999 1.669064742775 0.68500222975
O 8.004049357224998 5.007193197775 0.68498673475
O 20.345202302224997 1.669067477775 0.63104105975
O 20.345201522224997 5.007195932775 0.63102556475
O -1.32056339259 1.66905543389 4.86908874771
O -1.32056417259 5.00718388889 4.86907325271
O 11.02058877241 1.66905816889 4.81512757771
O 11.020587992409999 5.00718662389 4.81511208271
O 11.817936027590001 1.66906390611 1.63051781729
O 11.81793524759 5.00719236111 1.63050232229
O 24.15908819259 1.66906664111 1.57655664729
O 24.15908741259 5.00719509611 1.57654115229
O 4.850013079910001 -7.42611e-06 4.84211591021
O 4.85001229991 3.33812102889 4.84210041521
O 17.191165244910003 -4.69111e-06 4.78815474021
O 17.191164464910003 3.33812376389 4.78813924521
O 5.64736033509 -1.68889e-06 1.65750614979
O 5.64735955509 3.33812676611 1.65749065479
O 17.98851250009 1.04611e-06 1.60354497979
O 17.98851172009 3.33812950111 1.60352948479
