40   
   
Ga 7.848952579475899 -0.1193819687194633 13.708060092913833
Al 5.144405475 -0.036755995 -0.203978625
Ga 9.288583671774099 1.4005683062194632 1.9825359158361695
Al 4.1441781967741 1.4373243012194632 2.186514540836169
In 4.86068770875 -0.0594993775 5.29307444625
Ga 1.4941324830241005 -0.0299412962805367 4.20749289458617
Ga -0.378290355 -0.03032451 7.329404095
Al 8.321815523225899 -0.0814763312194633 4.54630497416383
Ga 2.17718277 1.42935996 7.140776765
Ga 7.321588245 1.392603965 6.9367981400000005
Ga 8.0380977569759 -0.1042197137194633 10.04335804541383
In 4.67154253125 -0.0746616325 8.95777649375
Ga 2.799119693225899 -0.0750448462194633 12.07968769416383
Ga 1.2104147167741006 -0.0526846787805367 9.704545965836168
Ga 5.354592818225899 1.3846396237805367 11.891060364163828
Ga 10.498998293225899 1.3478836287805367 11.687081739163828
O 3.4338863626500005 -0.0301492433 1.10729323115
O 1.0250524428241006 -0.0675436886805367 13.295953972386169
O 5.88714056265 1.3711478479 0.92621099435
O 11.030207668649998 1.4526368503 0.7153013279500001
O 8.507177797175899 -0.0666173213194633 0.9548969676138302
O 6.0983438773500005 -0.1040117667 13.14355770885
O 8.756035927350004 1.4140600821 12.94738528565
O 3.61296882135 1.3325710797 13.15829495205
O 6.611296410875898 -0.0748695795194633 5.85757683031383
O 4.95904320105 -0.0516150049 3.38742938155
O 9.064550610875898 1.3264275116805366 5.67649459351383
O 3.9188067668758992 1.4814285040805366 5.87354217711383
O 1.3957769907241009 -0.0378256688805367 6.1131379592861705
O 10.0323346355759 -0.0880830829194633 3.2350331180138303
O 12.690026685575901 1.4299887658805368 3.03886069481383
O 7.5469595795758995 1.348499763480537 3.2497703612138302
O -0.5001043955758993 -0.0460779270805367 11.01581782198617
O 8.136453249275899 -0.0963353411194633 8.13771298071383
O 1.9531498044241005 1.3552191641194633 10.83473558518617
O 7.096216910424102 1.4367081665194634 10.623825918786167
O 4.57318703895 -0.0825460051 10.86342155845
O 2.9209338291241007 -0.0592914304805367 8.393274109686171
O 5.578625879124101 1.4587804183194633 8.197101686486171
O 10.724369723124099 1.3037794259194633 8.000054102886171
