80   
   
Ga 6.963021465 2.319803215 6.928697370000001
Ga 2.31945308 6.938318505 6.953314035000001
Ga 6.93595233 6.960727185 2.30711935
Al 6.950754375 6.950935244999999 6.938198895
Ga 2.304651035 6.948110445 2.32223449
In 6.94821942 2.329595155 2.297617825
Al 2.33172017 2.307186475 6.943812510000001
Al 2.316918125 2.316978415 2.3127329650000004
Ga 6.95032105962 4.32534822196 4.6172622563
Al 2.29195062962 8.953655451959998 0.0107993763
Ga 6.93385069038 4.96497411804 -0.0125250813
Al 4.62669616594 6.95018869692 4.3153032834400005
Ga 0.02246400594 2.29664798692 8.95199644344
In -0.00259205094 6.93624025308 4.960245241560001
Ga 4.32630878444 4.62820292168 6.942033532020001
Al 8.95507512444 0.01947957168 2.28633732202
Al 4.96843285056 -0.00121323168 6.930476347980001
Ga 2.3173514403800004 4.94256543804 4.6336696037000005
Al 6.94611778038 0.33384208804 -0.0220266063
Ga 2.30421771962 4.322523421960001 0.0012978513
Al 4.64097633406 2.31772496308 4.935628576560001
Ga -0.01739409594 6.94603219308 0.3291656965600001
Ga 0.00766196094 2.30643992692 4.320916898440001
Al 4.9413637155600005 4.63971073832 2.30889832798
Ga 0.33713155556 -0.01382997168 6.945591487980001
Ga 4.32377382944 0.00686283168 2.3014524620200003
Al 2.3296185303800003 0.31143340804 4.6241680787
Al 4.62617428906 2.32751690308 0.3045490315600001
Al 0.3100624205600001 4.62709399832 2.3240134679800004
Al 6.93805396962 8.95648025196 4.6267637813
Al 4.64149821094 6.94039675692 8.94638282844
Ga 8.95761007944 4.640819661679999 6.926918392020001
O 5.75264102446 3.62434297978 6.064663781990001
O 3.52291488178 8.245737205140001 7.82270648311
O 8.140767201620001 5.659869189659999 1.4298670290900002
O 5.752858142140001 5.639834775419999 7.81009235581
O 6.072631306630001 5.751499583 3.613455031510001
O 7.834690841749999 3.52350816284 8.23429055187
O 1.44140481645 8.142802212760001 5.65266164613
O 7.82045428517 5.7519741914 5.626922420490001
O 3.62393772641 6.07376950844 5.743184597120001
O 8.243521613970001 7.83239202292 3.5087238489200003
O 5.66314924443 1.44304656828 8.135254234480001
O 5.638572665190001 7.82057605036 5.740166969480001
O 3.5150314755400007 5.64357068022 3.18626807801
O 5.74475761822 1.02217645486 1.4282253768900002
O 1.12690529838 3.60804447034 7.82106483091
O 3.51481435786 3.62807888458 1.4408395041900002
O 3.19504119337 3.516414077 5.6374768284900005
O 1.43298165825 5.74440549716 1.01664130813
O 7.82626768355 1.12511144724 3.59827021387
O 1.44721821483 3.5159394686 3.62400943951
O 5.64373477359 3.19414415156 3.50774726288
O 1.02415088603 1.43552163708 5.742208011080001
O 3.60452325557 7.82486709172 1.11567762552
O 3.62909983481 1.44733760964 3.5107648905200004
O 1.09427059446 8.25265020978 1.4582009019900002
O 8.15168122178 3.63701385514 3.16701027311
O 3.5365350416200005 1.00632847966 6.0665601890900005
O 1.11902189214 1.00587794542 3.18462642581
O 1.4683991466300002 1.097958873 8.25014819151
O 3.17632041175 8.151815392839998 3.62782767187
O 6.070171156450001 3.53407886276 0.99696543613
O 3.18661803517 1.1180173614 1.00145649049
O 8.25270406641 1.46504615844 1.08748838712
O 3.63928945397 3.17885131292 8.14541700892
O 1.00477881443 6.07135379828 3.5287913544800005
O 1.00473641519 3.18661922036 1.11470103948
O 8.17340190554 1.0152634502200002 7.79273095801
O 1.11599127822 5.63089980486 6.083921586890001
O 5.73113745838 8.261585180340001 3.18437167091
O 8.14865060786 8.262035714580001 6.066305434190001
O 7.79927335337 8.169954787 1.00078366849
O 6.091352088250001 1.11609826716 5.62310418813
O 3.1975013435499995 5.733834797239999 8.25396642387
O 6.08105446483 8.1498962986 8.249475369510002
O 1.01496843359 7.80286750156 8.163443472880001
O 5.62838304603 6.0890623470800005 1.10551485108
O 8.26289368557 3.19655986172 5.7221405055200005
O 8.26293608481 6.081294439640001 8.136230820520002
