80   
   
Ga 7.370520435 2.4522423800000004 7.3588033625
Ga 2.456423025 7.35704527 7.3708629475
In 7.36051487 7.368443235000002 2.4555425175
Ga 7.36605357 7.361884665 7.365089497499999
In 2.450884325 7.36360384 2.4613159675
Ga 7.364981735 2.45880095 2.4492563825
Ga 2.46088989 2.4474029850000005 7.3645768125
In 2.45535119 2.453961555 2.4550298325
In 7.365821399319999 4.5764871321200005 4.90674548282
Ga 2.44618528932 9.48784859212 0.00925808782
In 7.35967520568 5.250757052880001 -0.00194658282
In 4.9080923159 7.363190235260001 4.57935353786
Ga 0.0084673359 2.4421499852600004 9.48838783286
In -0.0007849659 7.35745887474 5.252825377140001
In 4.57961685294 4.904314746140001 7.3652257496
Ga 9.488175562939999 0.00607042614 2.4436191846
In 5.25179347206 -0.00466938114 7.3581544254
In 2.4555833606799995 5.2393590878800005 4.91337384718
Ga 7.36414207068 0.3411147678800001 -0.00823271782
In 2.45065215432 4.57820630712 0.00297195282
In 4.9133124441 2.45265598474 5.24076579214
Ga -0.0063236659 7.364017444740002 0.34327839714
In 0.0029286359 2.44870855526 4.57884085286
Ga 5.24178790706 4.911531473860001 2.4548935804
In 0.34216292706 -0.00950877614 7.3639278754
Ga 4.578545017940001 0.00123103114 2.4493926346
Ga 2.46005022568 0.32971680288 4.90708771218
Ga 4.9077737441 2.45921455474 0.33121881214
Ga 0.33215736206 4.906692078860001 2.4606670304
Ga 7.36135453432 9.48612941712 4.91303161782
Ga 4.913631015899999 7.356631665260002 9.48890051786
In 9.48924739794 4.90915414114 7.3594522996
O 6.091715561769999 3.83673627283 6.4390823173300005
O 3.73270858637 8.74158962591 8.294129372809998
O 8.637237192029998 5.98641536449 1.52927389819
O 6.091850559829999 5.97487428677 8.28781273667
O 6.44022762584 6.089176917900001 3.83948577936
O 8.293931505959998 3.72780966362 8.74384459736
O 1.53068918424 8.634491974579998 5.98909050284
O 8.288663583959998 6.088136993900001 5.97787744544
O 3.840338547310001 6.437102458010001 6.09157082642
O 8.745630975069998 8.29111546577 3.73157841278
O 5.98828445393 1.52615969283 8.635731896819998
O 5.97925792369 8.28523793339 6.09141718898
O 3.72968919823 5.97910994717 3.38103701267
O 6.088696173629999 1.07425659409 1.52598995719
O 1.18416756797 3.829430855510001 8.29084543181
O 3.72955420017 3.84097193323 1.53230659333
O 3.38117713416 3.7266693021 5.98063355064
O 1.5274732540399998 6.08803655638 1.07627473264
O 8.290715575759998 1.18135424542 3.83102882716
O 1.5327411760399998 3.7277092261 3.84224188456
O 5.98106621269 3.37874376199 3.72854850358
O 1.07577378493 1.5247307542300002 6.08854091722
O 3.83312030607 8.289686527170002 1.18438743318
O 3.84214683631 1.53060828661 3.72870214102
O 1.1720794517699995 8.74809773283 1.54159492233
O 8.641267296369998 3.84334530591 3.37252280781
O 3.73761221203 1.06537511449 6.43830819319
O 1.18114817983 1.0669511767700002 3.37775307167
O 1.54060264584 1.1681366679 8.74852007436
O 3.3742953959599995 8.63917112362 3.84635720236
O 6.439247894239999 3.73624765458 1.06748393784
O 3.3779612039599995 1.1802138839 1.06781778044
O 8.74889725731 1.5388581380100002 1.16996426142
O 3.84600599507 3.37007521577 8.64061270778
O 1.06864834393 6.4375211528300005 3.73824450182
O 1.0685555436899998 3.37731482339 1.18135752398
O 8.64932530823 1.06774848717 8.27852440767
O 1.18013746363 5.97250091409 6.4475965221900005
O 6.083792547969999 8.75047110551 3.38181113681
O 8.64025658017 8.74889504323 6.44236625833
O 8.280802114159998 8.6477095521 1.07159925564
O 6.44710936404 1.17667509638 5.97376212764
O 3.3821568657599994 6.07959856542 8.75263539216
O 6.44344355604 8.6356323361 8.75230154956
O 1.07250750269 8.276988081990002 8.65015506858
O 5.97539876493 6.445771004230001 1.17950662222
O 8.752756416069998 3.37832506717 6.08187482818
O 8.75284921631 6.43853139661 8.63876180602
