40   
   
In 0.0234828072743318 3.4976697815295337 14.245558529220954
Ga 1.5371141783251667 2.6170207799710337 2.4789246928745023
Ga 3.0358905333251665 -0.0235063350289659 2.4770822128745023
In -1.4991846916748333 2.6390788199710338 2.478900987874502
Ga 3.0492142869005017 1.730940672249432 0.0012599266545415
In -0.0007145891748334 -0.0025345162789659 4.334852351624503
Al -1.4870859480994985 4.389180942249432 7.434254076654541
In 0.0116904069005016 1.748653827249432 7.432411596654541
Al 1.5492129219005015 4.367122902249432 7.434277781654543
Ga 0.0250140697743318 3.5031008877795338 4.956589310470956
In 0.0240953122743318 3.4998422240295337 10.529970841720953
Ga 3.0476830244005018 1.725509565999432 9.29022914540454
Ga 4.558864284774333 0.8361708477795334 12.385945910470957
Al 3.0600879297743324 3.4766979627795336 12.387788390470957
Ga 1.5225654147743315 0.8582288877795334 12.385922205470953
Ga -0.0016333466748334 -0.0057931800289659 9.9082338828745
O 4.500230107200502 0.8781747921994323 1.2639777324045416
O 3.061404806400501 3.4130808225994325 1.2657465132045416
O 1.5853831920005017 0.8993505105994323 1.2639549756045416
O -0.0022336015748334 -0.0079221736789659 13.5495098166245
O 0.0256143246743318 3.5052298814295337 1.315313376720956
O 1.5957484466005014 2.575016782299432 13.600892870904541
O 3.034573747400501 0.0401107518994323 13.59912409010454
O 4.510595361800501 2.553841063899432 13.600915627704541
O 1.476029890074332 2.6503350077295336 6.219307116220956
O 0.0372045892743322 5.185241038129533 6.221075897020956
O -1.438817025125668 2.671510726129533 6.219284359420956
O 3.048614032000501 1.728811678599432 3.6425358604045406
O -0.0010330917748334 -0.0036641863789659 6.266957949124502
O -1.426001750525668 4.355866767829534 3.693871504720956
O 0.012823550274332 1.8209607374295336 3.692102723920956
O 1.4888451646743324 4.334691049429535 3.693894261520956
O -1.5481702363748333 4.422495169921033 11.1746366486245
O 0.0105571728251666 1.676346970321034 11.1727204694245
O 1.609580588425167 4.399554808321033 11.1746613018245
O 0.0244138148743318 3.500971894129534 8.597865244220955
O 3.0473645218005014 1.724379895899432 11.222334742904541
O 4.619948573025166 0.8028566200210341 8.645563487124502
O 3.061221163825166 3.549004819621034 8.647479666324502
O 1.462197748225167 0.8257969816210341 8.645538833924503
