80   
   
Ga 7.2320247775 2.4075970275 7.21463355
In 2.4095861825 7.216157237500002 7.22972281
In 7.2173603825 7.230367687500002 2.405996495
Al 7.2252734325 7.2231951225 7.221579795
In 2.4016731325 7.223329802500001 2.41413951
Ga 7.2241117275 2.4147695925 2.39905025
In 2.4163375275 2.4005591425 7.222776565
Al 2.4084244775 2.4077317075 2.407193265
Ga 7.22515167146 4.4915216870400005 4.80984267784
Ga 2.39480002646 9.30725446204 0.00934863784
In 7.216320438539999 5.153615592960001 -0.00479593284
Ga 4.8129351951 7.22375019692 4.4903999881
Al 0.0119123401 2.39394165192 9.3071800581
Al -0.0016758801 7.21573684308 5.1534623319
Al 4.493338747000001 4.81139855632 7.22273190502
Ga 9.307864292 0.01001091132 2.39205934502
In 5.155023558000001 -0.00324238632 7.21467820998
In 2.40854623854 5.139405142960001 4.8189303821600005
Al 7.22307178354 0.33801749796 -0.01174217784
Ga 2.40155137146 4.491656367040001 0.00240239284
In 4.8207627149 2.40717663308 5.1383730719
In -0.0095889301 7.22290940808 0.3378790319
In 0.0039992901 2.4011142169200004 4.4915967581
Ga 5.140359163000001 4.8195282736800005 2.40604115498
Ga 0.339336308 -0.01028027132 7.22282122498
Ga 4.492177042000001 0.00297302632 2.40020236002
In 2.41529758354 0.32380704796 4.8119841371600005
Al 4.8128496649 2.41434919808 0.3227897719
Al 0.324671913 4.812490388680001 2.41418416998
Ga 7.2184003264599985 9.307119782040001 4.81678892284
In 4.8208482451 7.21657763192 9.3059832881
Ga 9.309025997 4.81843644132 7.21458889002
O 5.97655455981 3.76511428241 6.3133799145900005
O 3.66124864161 8.57463730817 8.13489412759
O 8.469855293389998 5.8755473170300005 1.49659080961
O 5.97658628019 5.8620181673900005 8.127067798209998
O 6.3159980093 5.97496639709 3.76371584872
O 8.1378501109 3.65895299125 8.57290317748
O 1.5002501497 8.46891228315 5.87506522992
O 8.130146505099999 5.97448540351 5.86024839388
O 3.76682184686 6.314674346110001 5.97406892771
O 8.57617232714 8.13581994603 3.65705771683
O 5.87732761886 1.49841503517 8.46767564417
O 5.86392298214 8.12840774769 5.97313036129
O 3.65714335019 5.865812547590001 3.31539314541
O 5.972449268389999 1.05628952183 1.49387893241
O 1.16384261661 3.75537951297 8.13218225039
O 3.65711162981 3.76890866261 1.50170526179
O 3.3176999007 3.65596043291 5.86505721128
O 1.4958477991 5.97197383875 1.05586988252
O 8.133447760300001 1.16201454685 3.75370783008
O 1.5035514049 3.65644142649 3.76852466612
O 5.86687606314 3.31625248389 3.65470413229
O 1.05752558286 1.49510688397 5.9717153431700005
O 3.75637029114 8.13251179483 1.16109741583
O 3.76977492786 1.50251908231 3.65564269871
O 1.14620291481 8.58084705741 1.51288587459
O 8.47577418661 3.77324966317 3.30422156759
O 3.66883243839 1.0457387720300002 6.313370879610001
O 1.1597373251899998 1.04655475239 3.31268126821
O 1.5149751543 1.14515785209 8.58049591872
O 3.3074984658999997 8.474685766250001 3.77240913748
O 6.3147756947 3.66752463815 1.04439266992
O 3.3132975501 1.1590219885100002 1.04586186388
O 8.581347391859998 1.51328670111 1.14339636771
O 3.77514947214 3.30601140103 8.47383778683
O 1.04697597386 6.314147810170001 3.66718160417
O 1.04707402714 3.31294433269 1.15874383129
O 8.487494995190001 1.05007977259 8.11588718541
O 1.15792372339 5.857677166830001 6.32455149241
O 5.9648654716100005 8.58518805797 3.31540218039
O 8.473960584810001 8.58437207761 6.316091791790001
O 8.1187227557 8.485768977910002 1.04827714128
O 6.326199444099999 1.15624106375 5.85636392252
O 3.3189222152999998 5.96340219185 8.58438039008
O 6.3204003599 8.471904841490002 8.582911196119998
O 1.05235051814 8.11764012889 8.48537669229
O 5.85854843786 6.324915428970002 1.15493527317
O 8.58672193614 3.31677901983 5.96159145583
O 8.586623882859998 6.317982497310001 8.47002922871
