30   
   
Ga -0.00041347185 0.0027510589 1.96365563425
Al -0.00183923685 0.0122374689 8.73488195925
Ga -0.00243805815 0.0162217611 11.57879701575
Ga -0.00101229315 0.0067353511 4.80757069075
Ga 2.500298939993784 1.4708377211499442 6.476147612465646
Al 2.498873174993784 1.480324131149944 13.247373937465646
Ga 2.5011258836937835 1.465335603349944 2.5488363439656463
Ga 2.4997001186937835 1.474822013349944 9.320062668965646
Ga -0.0174127636937834 2.912510016650056 10.987916396034354
Ga -0.0159869986937834 2.903023606650056 4.2166900710343524
Ga -0.0165858199937834 2.9070078988500563 7.0606051275343535
Ga -0.0151600549937834 2.897521488850056 0.2893788025343536
O 1.51986960162 0.01274677123 3.38583233149
O 1.73242267855 3.0428775466 3.38164032523
O -0.76786627767 1.31747809717 3.38366692078
O 0.7512904414499999 1.3349680734 10.15511241477
O -1.76684464233 3.03395311283 10.15236248922
O 3.49570290838 0.03264045877 10.15734364851
O 4.020582013463783 1.480833433479944 7.898324309705645
O 1.7465704403937834 0.152091408849944 7.899832213445646
O 1.7328461341737833 2.7855647594199446 7.896158898995645
O 3.254854383293783 2.784081915649945 1.1251517429856464
O 3.268578689513784 0.150608565079944 1.1288250574356464
O 0.9808428102237834 1.455339891019944 1.1266596467256462
O 1.5028703097762168 2.922505728980056 12.410093093274352
O -0.7711412632937833 1.593763704350056 12.411600997014352
O -0.7848655695137832 4.227237054920056 12.407927682564353
O 0.737142679606217 4.225754211150056 5.636920526554354
O 0.7508669858262167 1.592280860580056 5.640593841004353
O -1.5368688934637833 2.897012186520056 5.638428430294352
