80   
   
In 7.0632381475 2.3528399025000004 7.037027942499999
Ga 2.3527756925000003 7.0431060975 7.056982617499999
Ga 7.0418152925 7.0616250775000005 2.3447629975
Al 7.0533553425 7.0532447475 7.0451886675
In 2.3412356425 7.0514864275 2.3565569475
Al 7.0516980975 2.3612202325000005 2.3366022725
In 2.3626584975 2.3427012525000004 7.0488218925
Al 2.3511184475 2.3510815825000004 2.3483962225
Al 7.05319875074 4.387604960540001 4.6903405407
Ga 2.33119624574 9.08625148554 0.0098695457
In 7.04031463926 5.03524034946 -0.0089752707
Ga 4.6965107691 7.0529354499400005 4.38124386194
Ga 0.0173539741 2.33401162494 9.08530275694
Ga -0.0024994341 7.04165707506 5.03229570306
Al 4.3883675038000005 4.6972835718 7.0478072686
Al 9.0872899088 0.0153977068 2.3274269236
Al 5.0375291412 -0.0017424168 7.0380425664
Al 2.35127503926 5.016721369460001 4.703244349299999
Al 7.05019744426 0.33483550446 -0.0171359957
Al 2.34107905074 4.3858466405400005 0.0017088207
Al 4.7079630209 2.3513908800600003 5.01234102806
Ga -0.0140394841 7.05003740506 0.33187003306
Ga 0.0058139241 2.34239195494 4.38487708694
In 5.0161062862 4.707042758200001 2.3457776214
Al 0.3369494912 -0.0118810668 7.049836516399999
In 4.386710258800001 0.0052590568 2.3392208736
Ga 2.36115784426 0.3163165244600001 4.6950836243
Al 4.6964229709 2.3597712100600003 0.31191535806
Al 0.3155266362 4.696904108200001 2.3575715714
Al 7.04331594574 9.08800980554 4.698501265699999
Ga 4.7080508191 7.04455511994 9.08166953194
In 9.088947153799996 4.7074222218 7.036013318599999
O 5.83613095809 3.67729352183 6.158715667989999
O 3.57430897989 8.369680810750001 7.93989754091
O 8.26458342311 5.740322462250001 1.45571522009
O 5.83616111391 5.72351903017 7.929633796009998
O 6.1639301417 5.835250498540001 3.67037851054
O 7.9476318865 3.5744879753400007 8.362452507339999
O 1.4632428949 8.265668544060002 5.735801629659999
O 7.9363795519 5.835408807060001 5.71532957746
O 3.67719670814 6.164467971740001 5.8300118331
O 8.368521199460002 7.945981401860002 3.5650819941
O 5.74253306654 1.4641258065400002 8.260930294299998
O 5.72293350086 7.93624064486 5.827938103499999
O 3.56834283191 5.727032808170001 3.2348692220099995
O 5.83016481011 1.03464551925 1.45368734909
O 1.13989036689 3.66400386775 7.937869669909999
O 3.56831267609 3.68080729983 1.4639510939899998
O 3.2405436483 3.5690758314600006 5.72320637946
O 1.4568419035 5.8298383546600006 1.0311323826599998
O 7.941230895099999 1.13865778594 3.65778326034
O 1.4680942381 3.56891752294 3.67825531254
O 5.72727708186 3.23985835826 3.5635730569
O 1.03595259054 1.4583449281400005 5.8285028959
O 3.66194072346 7.94020052346 1.1326545956999998
O 3.68154028914 1.4680856851400002 3.5656467865
O 1.1141284530899995 8.375940046830001 1.4782446729899998
O 8.27323138489 3.68779494575 3.2195171959099995
O 3.58542662811 1.02139863725 6.15977411509
O 1.1339242189099998 1.0213558651700003 3.23284135101
O 1.4847733467 1.11632667354 8.37443740554
O 3.2256293815 8.273134500340001 3.68198151234
O 6.1621652999 3.5837826790600005 1.01542128466
O 3.2341426569 1.13324564206 1.01853713246
O 8.376119113139998 1.4825821067400002 1.1096314880999998
O 3.68936440446 3.22705757686 8.2691408891
O 1.02053056154 6.16277233154 3.5804592993
O 1.02069660586 3.23407747986 1.1311456585
O 8.29034533691 1.02838628317 7.91534021701
O 1.1312424051099998 5.7165313842500005 6.17406769409
O 5.81904716189 8.38292769275 3.23381077491
O 8.27054957109 8.38297046483 6.16074353899
O 7.9197004433 8.28799965646 1.01914748446
O 6.178844408499999 1.13119182966 5.71160337766
O 3.2423084901 5.82054365094 8.37816360534
O 6.1703311331 8.271080687940001 8.375047757539999
O 1.02835467686 7.921744223260002 8.2839534019
O 5.71510938554 6.17726875314 1.1244440009
O 8.383943228460002 3.24155399846 5.8131255907
O 8.383777184139998 6.170248850140001 8.2624392315
