10   
   
Ga -0.047961455 -0.043966515 6.010649425
In 0.0 0.0 0.0
Al -0.071020179751 1.826895279489 3.0177960219110003
Al 1.5058679097510002 0.899559900511 9.035092238089
O -0.0239807275 -0.0219832575 3.0053247125
O -0.0719421825 -0.0659497725 9.0159741375
O -0.0867419447 1.812483055872 4.988086903426
O 1.5215896747000002 0.913972124128 7.064801356574
O 1.490146144802 0.885147676894 11.005383119604
O -0.055298414802 1.841307503106 1.047505140396
