80   
   
Al -0.06141504 -0.053574885 5.9693506525
Al -0.18424512 -0.160724655 17.9080519575
In 4.56260276 2.90824679 6.0413820475
In 4.43977268 2.8010970200000003 17.9800833525
Al 3.105660115 0.092518395 6.0025339575
Al 2.982830035 -0.014631375 17.9412352625
In 1.395527605 2.76215351 6.0081987425
Al 1.272697525 2.65500374 17.9469000475
Al 0.0 0.0 0.0
Al -0.12283008 -0.10714977 11.938701305
Al 4.6240178 2.9618216750000004 0.072031395
Al 4.50118772 2.8546719050000005 12.0107327
Al 3.167075155 0.14609328 0.033183305
Al 3.044245075 0.03894351 11.97188461
Al 1.456942645 2.8157283950000003 0.03884809
Al 1.334112565 2.7085786250000004 11.977549395
Al -0.1150957020045 1.801484215383 2.9995114674875003
In -0.2379257820045 1.694334445383 14.938212772487502
Al -1.8252282120045005 4.471119330383001 3.0051762524875003
Al -1.9480582920045 4.363969560383 14.9438775574875
Ga 3.0519794529955 1.947577495383 3.0326947724875
Al 2.9291493729955 1.840427725383 14.971396077487501
In 1.3418469429954998 4.6172126103830005 3.0383595574875
In 1.2190168629954998 4.510062840383 14.977060862487502
Al 1.4492082670045 0.907094409617 8.978037927512501
Al 1.3263781870045002 0.799944639617 20.916739232512498
Al -0.2609242429954999 3.576729524617 8.9837027125125
Al -0.3837543229954999 3.469579754617 20.9224040175125
In 4.6162834220045 1.053187689617 9.011221232512499
Al 4.4934533420045 0.946037919617 20.949922537512496
In 2.9061509120045 3.722822804617 9.0168860175125
Al 2.7833208320045 3.615673034617 20.955587322512496
O -0.1352275521165 1.78392236808 4.956264611377
O -0.2580576321165 1.67677259808 16.894965916377
O -1.8453600621165005 4.453557483080001 4.961929396377
O -1.9681901421165 4.3464077130800005 16.900630701376997
O 3.0318476028835 1.93001564808 4.989447916377
O 2.9090175228835 1.82286587808 16.928149221376998
O 1.3217150928834998 4.5996507630800005 4.995112701377
O 1.1988850128834998 4.49250099308 16.933814006377
O 1.4693401171165 0.92465625692 7.021284783623
O 1.3465100371165002 0.8175064869199999 18.959986088623
O -0.2407923928834999 3.59429137192 7.026949568623
O -0.3636224728834999 3.48714160192 18.965650873623
O 4.6364152721165 1.0707495369200002 7.054468088623
O 4.5135851921165 0.96359976692 18.993169393623003
O 2.9262827621165 3.74038465192 7.060132873623
O 2.8034526821165 3.63323488192 18.998834178623003
O 1.4290764168925 0.889532562314 10.934791071402
O 1.3062463368925 0.782382792314 22.873492376402
O -0.2810560931074999 3.559167677314 10.940455856402
O -0.4038861731074999 3.452017907314 22.879157161402
O 4.5961515718925 1.035625842314 10.967974376402
O 4.4733214918925 0.928476072314 22.906675681402
O 2.8860190618925 3.705260957314 10.973639161402
O 2.7631889818925 3.598111187314 22.912340466402
O -0.0949638518925 1.819046062686 1.042758323598
O -0.2177939318925 1.711896292686 12.981459628598
O -1.8050963618925 4.488681177686001 1.048423108598
O -1.9279264418925 4.381531407686 12.987124413598
O 3.0721113031075 1.965139342686 1.075941628598
O 2.9492812231075 1.857989572686 13.014642933598
O 1.3619787931074998 4.634774457686 1.081606413598
O 1.2391487131075 4.527624687686 13.020307718598
O -0.03070752 -0.0267874425 2.98467532625
O -0.1535376 -0.1339372125 14.92337663125
O 4.59331028 2.9350342325000005 3.0567067212500003
O 4.4704802 2.8278844625000006 14.99540802625
O 3.136367635 0.1193058375 3.01785863125
O 3.013537555 0.0121560675 14.95655993625
O 1.426235125 2.7889409525000004 3.02352341625
O 1.303405045 2.6817911825000005 14.96222472125
O -0.09212256 -0.0803623275 8.95402597875
O -0.21495264 -0.1875120975 20.89272728375
O 4.53189524 2.8814593475000003 9.02605737375
O 4.40906516 2.7743095775000004 20.96475867875
O 3.074952595 0.0657309525 8.987209283749998
O 2.952122515 -0.0414188175 20.92591058875
O 1.364820085 2.7353660675 8.99287406875
O 1.241990005 2.6282162975000003 20.93157537375
