80   
   
Ga 1.66991769031 7.449188445749998 6.506963347599999
Ga 6.76277040531 7.416016165749999 6.4812934676
Ga 3.5215810016699995 1.28464319019 1.82530740196
Ga 8.614433716670002 1.25147091019 1.7996375219599998
Ga 0.98658849865 3.0688177334699995 1.83466135272
Ga 6.07944121365 3.0356454534699995 1.80899147272
Ga 4.204910193330001 5.66501390247 6.497609396839999
Ga 9.29776290833 5.6318416224700005 6.471939516839999
Ga 0.948865567905 5.751850128999999 -0.01593397248
Ga 6.041718282905 5.718677849 -0.04160385248
Ga 4.224104222095001 2.974680486 4.65713284248
Ga 9.316956937094998 2.9415082059999995 4.63146296248
Ga 1.667262868435 1.38118610024 4.673138584559999
Ga 6.760115583435001 1.34801382024 4.64746870456
Ga 3.552734591565 7.363875024759999 9.33626302544
Ga 8.645587306565 7.330702744759998 9.310593145439999
Ga 0.90427799565 0.27545216565 9.35400501882
Ga 5.9971307106500005 0.24227988565 9.32833513882
Al 4.31562540901 8.469571898329999 4.6366601857
Ga 9.40847812401 8.436399618329999 4.6109903057
Ga 1.74429362591 4.63596547673 4.6570774785
Ga 6.83714634091 4.60279319673 4.631407598499999
Ga 3.47560977875 4.10905858725 9.33358772602
Ga 8.568462493750001 4.07588630725 9.307917846019999
Al 3.534501594745 1.3656792090499998 7.352486167239999
Al 8.627354309745002 1.3325069290499998 7.32681628724
Ga 1.665462077835 7.37148791869 2.66606107552
Ga 6.758314792835 7.338315638689998 2.6403911955199995
Ga 4.201360232695 5.72732037765 2.65643140284
Ga 9.294212947695 5.69414809765 2.6307615228399994
Al 0.998603439885 3.0098467500900004 7.362115839919999
Ga 6.091456154885001 2.9766744700900003 7.33644595992
O 4.301838177605 5.843090706469999 8.33299609352
O 9.394690892604999 5.80991842647 8.307326213519998
O 0.908095361015 2.89800488939 3.67161013012
O 6.000948076015001 2.86483260939 3.64594025012
O 3.445351993635001 1.46384785171 3.66156687456
O 8.538204708635002 1.43067557171 3.63589699456
O 1.7645815449850002 7.2772477441499985 8.343039349079998
O 6.857434259985 7.24407546415 8.317369469079999
O 2.7038375089650004 0.07299418255 5.87896774288
O 7.796690223965 0.03982190255 5.85329786288
O 2.481265419895 8.658317304029998 1.17922743404
O 7.574118134895 8.62514502403 1.1535575540399998
O 5.000409015715 4.42402022155 1.17469861688
O 10.093261730715 4.39084794155 1.1490287368799998
O 0.184693913145 4.307291265029999 5.883496560039999
O 5.277546628144999 4.27411898503 5.85782668004
O 0.128894018275 7.238356535789999 1.1189161066
O 5.221746733275 7.205184255789999 1.0932462265999998
O 5.055456467865 1.49265846263 5.78938782648
O 10.148309182865 1.45948618263 5.763717946479999
O 2.5177470093250003 2.85681199919 5.799568943
O 7.610599724325 2.82363971919 5.773899062999999
O 2.666603476815 5.87420299923 1.10873499008
O 7.759456191815 5.841030719229999 1.08306511008
O 5.02752019784 7.286194438619998 5.93757298706
O 10.12037291284 7.2530221586199985 5.91190310706
O 0.15842922908 1.44545059714 1.28924983918
O 5.2512819440800005 1.41227831714 1.26357995918
O 2.7144781373800004 2.91643885594 1.27348535378
O 7.80733085238 2.88326657594 1.24781547378
O 2.47147128954 5.81520617982 5.95333747246
O 7.56432400454 5.78203389982 5.92766759246
O 1.888868343135 1.49164662738 8.100667200759998
O 6.981721058134999 1.45847434738 8.074997320759998
O 3.3185257013050005 7.24844832094 3.3980560749199995
O 8.411378416305 7.215276040939998 3.37238619492
O 0.7630428254050001 5.86496443854 3.41364823412
O 5.855895540405 5.83179215854 3.3879783541199995
O 4.444351219035 2.8751305097800004 8.085075041559998
O 9.537203934034999 2.8419582297800003 8.059405161559999
O 4.30000637598 -0.00230412944 8.4099052137
O 9.39285909098 -0.03547640944 8.384235333699998
O 0.91058555002 8.743659152439998 3.7258558483
O 6.00343826502 8.71048687244 3.7001859683
O 3.428823494000001 4.36935506772 3.72160275306
O 8.521676209 4.33618278772 3.69593287306
O 1.781768432 4.37199995528 8.414158308939998
O 6.874621147 4.33882767528 8.38848842894
