80   
   
Al 10.73638272941 1.71139e-06 1.2062436575
Al 10.73637411441 3.1008776113900005 1.2062637125
In 22.89612506941 4.47139e-06 1.2035673075
Al 22.89611645441 3.10088037139 1.2035873625
Al -0.12211871941 -2.84139e-06 4.6870627225
Al -0.1221273344100001 3.10087305861 4.687082777500001
In 12.03762362059 -8.139e-08 4.684386372500001
Al 12.037615005589998 3.10087581861 4.6844064275
Al 4.656507251909999 1.55043828139 1.20759186
Al 4.65649863691 4.65131418139 1.207611915
Ga 16.816249591909997 1.55044104139 1.20491551
Al 16.816240976909995 4.65131694139 1.204935565
In 5.957748143089999 1.55043648861 4.685734575000001
Ga 5.95773952809 4.65131238861 4.68575463
Al 18.11749048309 1.55043924861 4.683058225
In 18.11748186809 4.65131514861 4.68307828
Al 9.16614086606 1.55043760262 4.042403369930001
In 9.166132251059999 4.651313502620001 4.04242342493
In 21.32588320606 1.55044036262 4.03972701993
In 21.32587459106 4.651316262620001 4.03974707493
In 1.44811452894 1.55043716738 1.85092306507
Al 1.44810591394 4.65131306738 1.85094312007
Ga 13.60785686894 1.55043992738 1.84824671507
Al 13.60784825394 4.65131582738 1.84826677007
Al 3.08627400356 -1.72738e-06 4.04373151743
In 3.08626538856 3.10087417262 4.043751572430001
Al 15.24601634356 1.03262e-06 4.041055167430001
Ga 15.24600772856 3.10087693262 4.04107522243
Ga 7.527990006439999 5.9738e-07 1.84957486257
In 7.527981391439998 3.1008764973800003 1.84959491757
Al 19.68773234644 3.35738e-06 1.84689851257
Ga 19.68772373144 3.1008792573800004 1.84691856757
O 9.38073288497 5.8259e-07 2.57433111156
O 9.38072426997 3.1008764825900004 2.57435116656
O 21.540475224969995 3.34259e-06 2.57165476156
O 21.54046660997 3.1008792425900005 2.57167481656
O 1.2335311250299998 -1.71259e-06 3.31897526844
O 1.2335225100299998 3.10087418741 3.31899532344
O 13.39327346503 1.04741e-06 3.31629891844
O 13.393264850029999 3.10087694741 3.31631897344
O 3.30085740747 1.55043715259 2.57567931406
O 3.30084879247 4.65131305259 2.57569936906
O 15.46059974747 1.55043991259 2.57300296406
O 15.460591132469997 4.65131581259 2.57302301906
O 7.313397987530003 1.55043761741 3.31764712094
O 7.313389372530001 4.65131351741 3.31766717594
O 19.47314032753 1.55044037741 3.31497077094
O 19.47313171253 4.65131627741 3.31499082594
O 8.777909140199998 -1.1575e-06 5.2451898774500005
O 8.777900525199998 3.1008747425000003 5.24520993245
O 20.9376514802 1.6025e-06 5.24251352745
O 20.9376428652 3.1008775025 5.24253358245
O 1.8363548698000003 2.75e-08 0.64811650255
O 1.8363462548 3.1008759275 0.64813655755
O 13.9960972098 2.7875e-06 0.64544015255
O 13.9960885948 3.1008786875000003 0.64546020755
O 2.6980336627 1.5504354125 5.2465380799500005
O 2.6980250477000003 4.651311312500001 5.24655813495
O 14.857776002699996 1.5504381725 5.24386172995
O 14.857767387699997 4.651314072500001 5.24388178495
O 7.9162217323 1.5504393575 0.64678835505
O 7.9162131173 4.6513152575 0.64680841005
O 20.0759640723 1.5504421175 0.64411200505
O 20.0759554573 4.6513180175 0.64413206005
O -1.09965573733 1.55043507077 4.38071449049
O -1.0996643523299998 4.65131097077 4.38073454549
O 11.06008660267 1.55043783077 4.37803814049
O 11.06007798767 4.65131373077 4.37805819549
O 11.71391113233 1.5504396992300002 1.51261194451
O 11.713902517329998 4.65131559923 1.5126319995100002
O 23.87365347233 1.55044245923 1.50993559451
O 23.87364485733 4.65131835923 1.50995564951
O 4.98021974017 -1.49923e-06 4.37936628799
O 4.98021112517 3.10087440077 4.37938634299
O 17.13996208017 1.26077e-06 4.37668993799
O 17.139953465170002 3.10087716077 4.37670999299
O 5.63404426983 3.6923e-07 1.51394009201
O 5.63403565483 3.10087626923 1.51396014701
O 17.79378660983 3.12923e-06 1.51126374201
O 17.79377799483 3.10087902923 1.5112837970100002
