80   
   
Al 1.61651665917 7.2980127450499985 6.39863121421
Al 6.607161629170001 7.273195105049998 6.38025963421
Al 3.4464862390899995 1.26288426201 1.7984494913700002
Ga 8.437131209089998 1.23806662201 1.78007791137
Al 0.95971883789 3.00766178741 1.80551506513
Al 5.95036380789 2.98284414741 1.78714348513
Al 4.103284060370001 5.55323521965 6.39156564045
Ga 9.09392903037 5.528417579650001 6.37319406045
Al 0.92119299983 5.63862005904 -0.01019495978
Ga 5.91183796983 5.613802419040001 -0.02856653978
Al 4.12858576517 2.9180319959600003 4.58196954478
Ga 9.11923073517 2.89321435596 4.5635979647800005
Al 1.62547053057 1.3524415991600005 4.59308662086
Ga 6.61611550057 1.3276239591600003 4.57471504086
Al 3.4578720244300003 7.21498444584 9.179972534140001
Ga 8.448516994430001 7.190166805840001 9.16160095414
Ga 0.87322913817 0.26387633349 9.18868197639
Ga 5.863874108169999 0.23905869349 9.17031039639
Ga 4.210046289249999 8.30352816353 4.56597460947
Al 9.20069125925 8.27871052353 4.54760302947
Ga 1.69608896825 4.54246059553 4.579778692270001
Ga 6.68673393825 4.51764295553 4.56140711227
Al 3.38718645917 4.02494390149 9.17487789359
Ga 8.377831429170001 4.000126261490001 9.15650631359
Al 3.45165575548 1.3379240306300002 7.227178533450002
Al 8.44230072548 1.3131063906300002 7.20880695345
Ga 1.6173886249800002 7.22491229463 2.62613339473
Al 6.60803359498 7.20009465463 2.60776181473
Al 4.10483365658 5.617352092430001 2.61889988305
Al 9.09547862658 5.592534452430001 2.60052830305
Al 0.96421072388 2.9454842328300006 7.234412045130002
Ga 5.954855693880001 2.920666592830001 7.21604046513
O 4.1955505657 5.726446675810001 8.194495176910001
O 9.186195535699996 5.701629035810002 8.176123596910001
O 0.88060933824 2.8386737353300004 3.60948908011
O 5.87125430824 2.8138560953300003 3.59111750011
O 3.36907081544 1.4369395179300002 3.6020036615500004
O 8.35971578544 1.4121218779300002 3.58363208155
O 1.7070890885 7.12818089321 8.201980595470001
O 6.697734058499999 7.10336325321 8.183609015470001
O 2.64158140026 0.07093232301 5.777868449950001
O 7.632226370259999 0.04611468301 5.75949686995
O 2.41685682256 8.488499421409998 1.16783755411
O 7.40750179256 8.46368178141 1.1494659741100002
O 4.891765691760001 4.342418740010001 1.16371089395
O 9.88241066176 4.317601100010001 1.14533931395
O 0.16667253106 4.21701300441 5.78199511011
O 5.1573175010600005 4.19219536441 5.76362353011
O 0.11394591444 7.09335178109 1.10439956803
O 5.10459088444 7.06853414109 1.08602798803
O 4.94395528774 1.4659075794899998 5.6940858829100005
O 9.93460025774 1.44108993949 5.67571430291
O 2.45515499534 2.7990331352900006 5.70165527043
O 7.44579996534 2.7742154952900004 5.683283690430001
O 2.60274620684 5.76022622529 1.09683018051
O 7.59339117684 5.735408585290001 1.07845860051
O 4.90768444536 7.14378011404 5.843798119700001
O 9.89832941536 7.11896247404 5.8254265397000005
O 0.15135792568 1.4158455622 1.26753100662
O 5.142002895679999 1.3910279222000002 1.24915942662
O 2.65388023368 2.8613708012 1.2565608762200002
O 7.64452520368 2.8365531612000003 1.23818929622
O 2.40516213736 5.698254875040001 5.8547682501
O 7.395807107359999 5.673437235040001 5.8363966701
O 1.83788889931 1.4583051663000002 7.95989595684
O 6.828533869309999 1.4334875263000002 7.94152437684
O 3.23645855997 7.10623344938 3.3472189334
O 8.227103529969998 7.08141580938 3.3288473534
O 0.7343597709700002 5.746469037380001 3.3580841026
O 5.725004740969999 5.7216513973800005 3.3397125226
O 4.33998768831 2.8180695783000003 7.94903078764
O 9.330632658310002 2.7932519383000005 7.93065920764
O 4.2024289578200005 -0.00247487334 8.265786976000001
O 9.193073927819999 -0.02729251334 8.247415396000001
O 0.87420083918 8.56774612034 3.667015265
O 5.86484580918 8.542928480340002 3.648643685
O 3.34843207798 4.28444811574 3.66305654276
O 8.339077047979998 4.259630475740001 3.64468496276
O 1.72819771902 4.28082313126 8.269745698240001
O 6.71884268902 4.25600549126 8.251374118240001
