80   
   
In 1.63686333453 7.389767110260002 6.466688735369999
Ga 6.69411043953 7.36679707026 6.446536285369999
Ga 3.4924781843499995 1.28044525616 1.81698629361
Al 8.54972528935 1.25747521616 1.79683384361
Ga 0.97176501851 3.04522291522 1.82412741417
Al 6.02901212351 3.02225287522 1.80397496417
Al 4.15757650037 5.6249894512 6.459547614809999
Al 9.21482360537 5.602019411200001 6.43939516481
Ga 0.931014728935 5.70710893958 -0.01316817331
Al 5.988261833935001 5.684138899580001 -0.03332062331
Al 4.183812216065 2.9571467654200005 4.63081083831
Al 9.241059321064998 2.9341767254200004 4.610658388309999
Ga 1.647983162845 1.3715731439 4.643560623789999
In 6.705230267845 1.3486031039000002 4.62340817379
Ga 3.503682802155 7.3078009911 9.27873271121
Ga 8.560929907155002 7.2848309511 9.25858026121
Al 0.88759450452 0.27163434075 9.291524501129999
Al 5.944841609519999 0.24866430075 9.27137205113
Al 4.263997782440001 8.407709557389998 4.61215953253
Ga 9.32124488744 8.384739517389999 4.59200708253
Ga 1.71814368474 4.600141304190001 4.628629054329999
Al 6.775390789740001 4.57717126419 4.60847660433
Ga 3.4334486022200004 4.07920259395 9.27505497933
In 8.49069570722 4.056232553949999 9.25490252933
Al 3.4993547474750004 1.35887137222 7.3066744045
Ga 8.556601852474998 1.33590133222 7.286521954499999
Ga 1.636617795005 7.3140623116 2.6518377450799995
Ga 6.693864900005 7.2910922716 2.63168529508
Al 4.157957526125 5.68815931702 2.6444641409999994
Al 9.215204631125 5.6651892770200005 2.6243116909999995
Al 0.978015016355 2.9847743668000004 7.314048008579999
Al 6.035262121355001 2.9618043268000003 7.29389555858
O 4.251553355675 5.8011555034 8.28262595008
O 9.308800460675 5.778185463400001 8.262473500079999
O 0.892229059045 2.87498328758 3.64847214154
O 5.9494761640450005 2.8520132475800004 3.62831969154
O 3.414508638085 1.4573922897200002 3.64074981218
O 8.471755743084998 1.4344222497200003 3.62059736218
O 1.729273776635 7.218746501260002 8.29034827944
O 6.786520881635 7.19577646126 8.270195829439999
O 2.6785789166750003 0.07556722024 5.841914463199999
O 7.735826021674998 0.05259718024 5.8217620132
O 2.445752495485 8.5925890397 1.17632807466
O 7.502999600485 8.569618999700001 1.15617562466
O 4.955500768925 4.39750475224 1.1732554157
O 10.012747873925 4.37453471224 1.1531029656999998
O 0.168830643235 4.270651507700001 5.844987122159999
O 5.226077748235 4.2476814677000005 5.82483467216
O 0.112701820905 7.179568999739999 1.11354395238
O 5.169948925905 7.156598959739999 1.0933915023799998
O 5.011040166935 1.48834536532 5.75582417476
O 10.068287271935 1.46537532532 5.73567172476
O 2.488447305255 2.8364990309400007 5.76366274588
O 7.545694410255002 2.8135289909400005 5.743510295879999
O 2.635294682585 5.831415334120001 1.10570538126
O 7.692541787584998 5.80844529412 1.08555293126
O 4.97184635637 7.23484023201 5.90464621236
O 10.02909346137 7.21187019201 5.88449376236
O 0.15314815815 1.4335881596700002 1.28108003756
O 5.210395263150001 1.41061811967 1.26092758756
O 2.6884289667500005 2.8976464497700003 1.26853367516
O 7.74567607175 2.87467640977 1.24838122516
O 2.4365655477699995 5.77078194191 5.91719257476
O 7.49381265277 5.7478119019100005 5.897040124759999
O 1.864226052325 1.4803436860400003 8.04808230837
O 6.921473157324999 1.4573736460400002 8.027929858369998
O 3.277567055315 7.19497870972 3.3805646470699995
O 8.334814160315 7.17200866972 3.36041219707
O 0.7426778500150001 5.817717084920001 3.39296570727
O 5.799924955015001 5.794747044920001 3.37281325727
O 4.399115257625 2.8576053108400004 8.035681248169999
O 9.456362362625 2.83463527084 8.01552879817
O 4.261052858109999 0.00308330009 8.357323624579998
O 9.31829996311 -0.01988673991 8.33717117458
O 0.88324530289 8.67326714891 3.70403957642
O 5.940492407889999 8.650297108909998 3.68388712642
O 3.39236701105 4.33930819697 3.70119940098
O 8.44961411605 4.316338156970001 3.68104695098
O 1.75193114995 4.33704225203 8.360163800019999
O 6.80917825495 4.31407221203 8.34001135002
