80   
   
Ga -0.0520395175 -0.031500215 5.972217195
Al -0.1561185525 -0.094500645 17.916651585
Ga 4.6337821225 2.78222219 6.02680855
Ga 4.5297030875 2.71922176 17.97124294
Al 3.1031092475 0.022651345 5.999886465
Ga 2.9990302125 -0.040349085 17.944320855
Al 1.4786333575 2.7280706300000004 5.99913928
Ga 1.3745543225 2.6650702 17.94357367
Al 0.0 0.0 0.0
Al -0.104079035 -0.06300043 11.94443439
Ga 4.68582164 2.813722405 0.054591355
Al 4.581742605 2.7507219750000003 11.999025745
Ga 3.155148765 0.05415156 0.02766927
In 3.05106973 -0.00884887 11.97210366
Ga 1.5306728749999998 2.7595708450000003 0.026922085
In 1.4265938399999998 2.696570415 11.971356475
Ga -0.0572843036495001 1.805731102829 2.99483269167
Ga -0.1613633386495001 1.742730672829 14.93926708167
Ga -1.6817601936495004 4.511150387829001 2.99408550667
Al -1.7858392286495004 4.448149957829 14.93851989667
Ga 3.0978644613504995 1.859882662829 3.02250196167
Ga 2.9937854263504997 1.796882232829 14.96693635167
Al 1.4733885713504993 4.565301947829001 3.02175477667
Al 1.3693095363504992 4.502301517829 14.966189166669997
In 1.4838781436495 0.8908393121709999 8.97652378333
Al 1.3797991086495 0.8278388821709999 20.92095817333
Ga -0.1405977463505003 3.596258597171 8.97577659833
Al -0.2446767813505003 3.533258167171 20.92021098833
Ga 4.6390269086495 0.944990872171 9.004193053329999
Al 4.5349478736495 0.8819904421709999 20.94862744333
Al 3.0145510186495 3.650410157171 9.00344586833
Al 2.9104719836495 3.5874097271710004 20.94788025833
O -0.0743428574860001 1.7954053323519998 4.952525488191
O -0.1784218924860001 1.7324049023519998 16.896959878190998
O -1.6988187474860004 4.500824617352 4.951778303191
O -1.8028977824860004 4.437824187352001 16.896212693191
O 3.0808059075139997 1.849556892352 4.980194758191
O 2.9767268725139995 1.7865564623519998 16.924629148191
O 1.4563300175139993 4.5549761773520006 4.979447573191
O 1.3522509825139992 4.491975747352001 16.923881963190997
O 1.500936697486 0.901165082648 7.018830986808999
O 1.396857662486 0.8381646526479999 18.963265376808998
O -0.1235391925140003 3.606584367648 7.018083801809
O -0.2276182275140003 3.543583937648 18.962518191809
O 4.656085462486001 0.955316642648 7.046500256808999
O 4.552006427486 0.8923162126479999 18.990934646809
O 3.031609572486 3.660735927648 7.045753071808999
O 2.927530537486 3.5977354976480003 18.990187461808997
O 1.466819589813 0.880513541694 10.934216579851
O 1.362740554813 0.817513111694 22.878650969851
O -0.1576563001870003 3.585932826694 10.933469394851
O -0.2617353351870003 3.522932396694 22.877903784851
O 4.621968354813 0.934665101694 10.961885849851
O 4.517889319813 0.871664671694 22.906320239851002
O 2.997492464813 3.640084386694 10.961138664851
O 2.893413429813 3.577083956694 22.905573054851
O -0.0402257498130001 1.816056873306 1.0371398951489998
O -0.1443047848130002 1.753056443306 12.981574285149
O -1.6647016398130003 4.521476158306 1.036392710149
O -1.7687806748130004 4.458475728306 12.980827100149002
O 3.1149230151869998 1.870208433306 1.064809165149
O 3.0108439801869995 1.807208003306 13.009243555149
O 1.4904471251869993 4.575627718306 1.064061980149
O 1.3863680901869992 4.512627288306001 13.008496370149
O -0.02601975875 -0.0157501075 2.9861085975
O -0.13009879375 -0.0787505375 14.9305429875
O 4.659801881249999 2.7979722975 3.0406999525
O 4.555722846249999 2.7349718675 14.9851343425
O 3.12912900625 0.0384014525 3.0137778675
O 3.02504997125 -0.0245989775 14.9582122575
O 1.50465311625 2.7438207375 3.0130306825
O 1.4005740812499998 2.6808203075000003 14.9574650725
O -0.07805927625 -0.0472503225 8.9583257925
O -0.18213831125 -0.1102507525 20.9027601825
O 4.607762363749999 2.7664720825 9.0129171475
O 4.503683328749999 2.7034716525 20.9573515375
O 3.07708948875 0.0069012375 8.9859950625
O 2.97301045375 -0.0560991925 20.9304294525
O 1.4526135987499995 2.7123205225 8.985247877499999
O 1.34853456375 2.6493200925000004 20.9296822675
