40   
   
Ga -0.073682604840406 3.3770783764226766 13.802216313490364
Al 1.470975139671986 2.536580943255758 2.413857214656838
Al 2.927418729671986 -0.0220314767442426 2.420642659656838
Ga -1.472844300328014 2.554733623255758 2.392723169656838
Ga 2.9172286251684203 1.6728107303215662 5.422549371852797
Ga -0.0287012428280142 -0.0067878942442426 4.1991400396568395
Ga -1.4953349373315794 4.246666732821566 7.1942613068527965
Ga -0.0388913473315797 1.688054312821566 7.201046751852797
Ga 1.4484845026684203 4.228514052821566 7.215395351852797
Ga -0.012179942340406 3.391623863922677 4.804059188490365
Ga -0.049081539840406 3.382896571422677 10.202953463490365
Ga 2.89262756016842 1.6669925353215662 9.021812221852796
Ga 4.338880957659595 0.8032223739226767 12.030504378490367
Ga 2.8824373676595942 3.361834793922677 12.023718933490365
Al 1.395061517659594 0.8213750539226767 12.009370333490365
Al -0.0656028403280142 -0.0155151867442426 9.59803431465684
O 4.35385003016842 0.8549950045215661 1.2563387026527968
O 2.9556641837684205 3.3112629277215664 1.2498246754527966
O 1.5277833677684205 0.8724215773215661 1.2360500194527968
O -0.0897118840280142 -0.0212170178442426 13.125311907656839
O 0.011929101359594 3.3973256950226767 1.2767815954903654
O 1.4560061551684202 2.4848082611215663 13.188022891052798
O 2.85419200156842 0.028540337921566 13.194536918252798
O 4.28207281756842 2.467381688321566 13.208311574252798
O 1.3875398651595945 2.565080845622677 6.036742794290364
O -0.0106459812404057 5.021348768822677 6.030228767090366
O -1.438526797240406 2.5825074184226766 6.016454111090366
O 2.9300211789684205 1.675836191721566 3.5509326898527966
O -0.0414937966280142 -0.0098133556442426 6.070756721656839
O -1.411899749840406 4.218166882222677 3.571375582690365
O -0.0137139034404058 1.7618989590226768 3.5778896098903648
O 1.414166912559594 4.2007403094226765 3.591664265890365
O -1.578770212828014 4.275166634955758 10.817147030456836
O -0.0640688792280141 1.6142097181557578 10.824203893256838
O 1.4828020047719863 4.2562878477557575 10.839126437256835
O -0.036288986040406 3.385922032822677 8.331336781490366
O 2.8798350063684204 1.6639670739215662 10.893428903852797
O 4.422316232171985 0.7747224715557576 8.407618798856838
O 2.9076148985719854 3.4356793883557577 8.40056193605684
O 1.3607440145719858 0.7936012587557576 8.385639392056838
