40   
   
Al 7.960221287249827 -0.0503443002238787 13.277750704266563
Al 4.86347758 -0.02032896 -0.03838482
Al 8.89706086025017 1.3925866764738786 2.251680514483436
In 4.03358328025017 1.4129156364738786 2.2900653344834363
Al 4.8065135875 -0.02677088625 5.18229035625
Al 1.5768538977501705 -0.0117867072761213 4.0477302432334366
Al -0.07595199 -0.008589235 6.960900235
Al 8.055161274749826 -0.0396077564738787 4.576625410516564
Al 2.361789395 1.4139658 6.943460385000001
Al 7.2252669749999985 1.39363684 6.905075565000001
Al 7.998197282249827 -0.0460496827238787 9.797300586766562
Al 4.7685375925 -0.03106550375 8.66274047375
In 3.115731704749829 -0.0278680314738787 11.575910465516563
Al 1.5198899052501704 -0.0182286335261213 9.268405419483436
Al 5.553473089749829 1.3946870035261212 11.558470615516564
Al 10.416950669749827 1.3743580435261211 11.520085795516563
O 3.2942529161 -0.01528386275 1.1572513623500005
O 1.4826734301501705 -0.0224373586761213 12.679246534633437
O 5.6344846457 1.35036897085 1.14050910635
O 10.498442433299997 1.44465757205 1.10226449115
O 8.092377749849827 -0.0353990313238787 1.165784295366564
O 6.2807982639 -0.04255252725 12.68777946765
O 8.8160493043 1.43690470915 12.66964202365
O 3.9520915167 1.34261610795 12.70788663885
O 6.485936610849829 -0.0345626592238787 5.772261592866564
O 4.8262611049 -0.02453768515 3.37245629515
O 8.826168340449827 1.3310901743761212 5.7555193368665645
O 3.9631709680498286 1.4660366955761213 5.794044361666565
O 1.5571063803501703 -0.0140199083761213 5.857564304333437
O 9.624385938649826 -0.0446528537238787 3.380989228166564
O 12.159636979049827 1.4348043826761214 3.362851784166564
O 7.295679191449829 1.3405157814761213 3.401096399366564
O -0.0493347586498294 -0.0131835362761213 10.464041601833436
O 8.017944799649827 -0.0438164816238787 7.987466525666563
O 2.29089697095017 1.3524692973238788 10.447299345833438
O 7.1548547585501705 1.4467578985238787 10.409054730633438
O 4.7487900751 -0.03329870485 10.47257453485
O 3.08911456915017 -0.0232737307761213 8.072769237133437
O 5.6243656095501695 1.4561835056238788 8.054631793133437
O 10.487362981950168 1.3212369844238787 8.016106768333437
