80   
   
Al -0.040845425 -0.026581305 6.0117626925
In -0.122536275 -0.079743915 18.0352880775
Ga 4.7389155700000005 2.752794935 6.055580667499999
Ga 4.65722472 2.699632325 18.0791060525
In 3.151270115 -0.01670553 6.0333246775
Ga 3.069579265 -0.06986814 18.0568500625
Ga 1.54680003 2.74291916 6.034018682499999
Ga 1.46510918 2.68975655 18.0575440675
Ga 0.0 0.0 0.0
Ga -0.08169085 -0.05316261 12.023525385
Ga 4.779760995 2.77937624 0.043817975
Al 4.698070145 2.72621363 12.06734336
Al 3.19211554 0.009875775 0.021561985
Ga 3.11042469 -0.043286835 12.04508737
In 1.587645455 2.769500465 0.02225599
Ga 1.505954605 2.716337855 12.045781375
Ga -0.026030361679 1.8295667616615 3.0135305795835
Ga -0.107721211679 1.7764041516614997 15.037055964583502
Al -1.630500446679 4.5891914516615 3.0142245845835
Al -1.712191296679 4.5360288416615 15.037749969583501
Al 3.1660851783210004 1.8394425366615 3.0350925645835
Ga 3.084394328321 1.7862799266614997 15.058617949583502
Ga 1.5616150933210002 4.5990672266615 3.0357865695835
In 1.4799242433210005 4.545904616661501 15.059311954583501
Ga 1.531984966679 0.8867710933384998 9.032250795416498
Ga 1.450294116679 0.8336084833384998 21.055776180416498
Ga -0.0724851183210001 3.6463957833385 9.0329448004165
Al -0.1541759683210001 3.5932331733385 21.056470185416497
Al 4.724100506679 0.8966468683384998 9.0538127804165
Ga 4.642409656679 0.8434842583384998 21.077338165416496
Al 3.1196304216790005 3.6562715583385 9.0545067854165
Ga 3.0379395716790003 3.6031089483385 21.078032170416495
O -0.039419491994 1.8208534098825 4.984186390184999
O -0.121110341994 1.7676907998824998 17.007711775184994
O -1.643889576994 4.5804780998825 4.984880395185
O -1.725580426994 4.5273154898825 17.008405780184994
O 3.152696048006 1.8307291848825 5.005748375184999
O 3.0710051980060005 1.7775665748824998 17.029273760185
O 1.5482259630060002 4.5903538748825 5.006442380185
O 1.4665351130060005 4.5371912648825 17.029967765185
O 1.545374096994 0.8954844451174998 7.061594984814999
O 1.463683246994 0.8423218351174998 19.085120369815
O -0.0590959880060001 3.6551091351175 7.062288989815
O -0.1407868380060001 3.6019465251175 19.085814374815
O 4.737489636994 0.9053602201174998 7.083156969814999
O 4.655798786994 0.8521976101174998 19.106682354815003
O 3.1330195519940003 3.6649849101175 7.083850974815
O 3.0513287019940005 3.6118223001175 19.107376359815003
O 1.518595836364 0.8780577415594999 11.002906606018
O 1.436904986364 0.8248951315594999 23.026431991018
O -0.0858742486360001 3.6376824315595 11.003600611018
O -0.1675650986360001 3.5845198215595 23.027125996018
O 4.710711376364 0.8879335165594999 11.024468591018
O 4.629020526364 0.8347709065594999 23.047993976018
O 3.1062412913640003 3.6475582065595 11.025162596018
O 3.0245504413640005 3.5943955965595 23.048687981018
O -0.012641231364 1.8382801134405 1.042874768982
O -0.094332081364 1.7851175034404998 13.066400153982
O -1.617111316364 4.5979048034405 1.043568773982
O -1.698802166364 4.5447421934405 13.067094158982
O 3.179474308636 1.8481558884405 1.064436753982
O 3.0977834586360005 1.7949932784404998 13.087962138982
O 1.5750042236360002 4.6077805784405 1.0651307589819998
O 1.4933133736360005 4.554617968440501 13.088656143982002
O -0.0204227125 -0.0132906525 3.00588134625
O -0.1021135625 -0.0664532625 15.02940673125
O 4.7593382825 2.7660855875 3.04969932125
O 4.677647432500001 2.7129229775 15.073224706249997
O 3.1716928275000003 -0.0034148775 3.02744333125
O 3.0900019775 -0.0565774875 15.05096871625
O 1.5672227425 2.7562098125 3.02813733625
O 1.4855318925 2.7030472025 15.051662721249997
O -0.0612681375 -0.0398719575 9.01764403875
O -0.1429589875 -0.0930345675 21.04116942375
O 4.7184928575 2.7395042825 9.06146201375
O 4.6368020075 2.6863416725 21.08498739875
O 3.1308474025 -0.0299961825 9.03920602375
O 3.0491565525 -0.0831587925 21.06273140875
O 1.5263773175000002 2.7296285075 9.03990002875
O 1.4446864675000002 2.6764658974999995 21.06342541375
