80   
   
In 1.73817172271 7.83595129002 6.7971871917
In 7.11839638771 7.82060878002 6.7678551667
In 3.71604711191 1.36498691564 1.90668874024
In 9.09627177691 1.34964440564 1.87735671524
In 1.03117928925 3.22778866126 1.9144548428
Ga 6.41140395425 3.21244615126 1.8851228178
Ga 4.42303954537 5.973149544400001 6.789421089139999
In 9.80326421037 5.957807034400001 6.76008906414
In 0.980143816395 6.040203506690001 -0.027726376735
Ga 6.3603684813950006 6.024860996690001 -0.057058401735
Ga 4.452906883605 3.146426238310001 4.867684886735
Ga 9.833131548605 3.1310837283100006 4.838352861735
In 1.758017373825 1.4642756602700002 4.888635965715
In 7.138242038825 1.4489331502700002 4.859303940715
In 3.728759556175 7.75866997473 9.758219554285
In 9.108984221175 7.74332746473 9.728887529285
Ga 0.95832913509 0.30921646173 9.79113759369
Ga 6.33855380009 0.29387395173 9.76180556869
In 4.528340342450001 8.913656541489999 4.83610413229
Al 9.908565007450001 8.898314031489999 4.8067721072900005
In 1.82680432515 4.880449500090001 4.86579965159
Ga 7.20702899015 4.865106990090001 4.83646762659
Al 3.659865152390001 4.34242350313 9.76144207439
Al 9.04008981739 4.32708099313 9.73211004939
Al 3.731812616975 1.45992983275 7.692572708455
Al 9.112037281975 1.44458732275 7.663240683455
In 1.732076939045 7.7475452331099985 2.776544685285
Ga 7.112301604045 7.732202723109999 2.747212660285
Ga 4.417360168425 6.03168451645 2.768232055205
In 9.797584833425 6.01634200645 2.738900030205
In 1.046529387595 3.1757905494100007 7.700885338535
In 6.426754052595 3.1604480394100007 7.671553313535
O 4.5255529641550005 6.1636829223700005 8.710391099275
O 9.905777629154999 6.1483404123700005 8.681059074274998
O 0.949726552625 3.051491112170001 3.837788460585
O 6.329951217625 3.036148602170001 3.808456435585
O 3.635632892085 1.5560419389500002 3.828656039225
O 9.015857557085 1.5406994289500002 3.799324014225
O 1.839646624695 7.65913209559 8.719523520635
O 7.219871289695 7.64378958559 8.690191495635
O 2.8586454140750006 0.09744220585 6.1528314844350005
O 8.238870079074998 0.08209969585 6.123499459435
O 2.5882666532649994 9.098557038770002 1.217306454145
O 7.968491318265 9.083214528770002 1.187974429145
O 5.265864858325001 4.66428728635 1.219104583185
O 10.646089523325 4.6489447763500005 1.189772558185
O 0.181047209015 4.53171195827 6.1510333553950005
O 5.561271874015 4.51636944827 6.121701330395
O 0.108675578645 7.59917851941 1.157945916645
O 5.488900243645 7.58383600941 1.128613891645
O 5.337376869015 1.59623967097 6.055281669775
O 10.717601534015 1.58089716097 6.025949644775
O 2.651262826195 3.0182183297100003 6.064687354895
O 8.031487491195001 3.0028758197100003 6.035355329895
O 2.794789621465 6.177199860670001 1.148540231525
O 8.175014286464998 6.161857350670001 1.119208206525
O 5.28553474732 7.67674156695 6.19976765913
O 10.665759412320002 7.66139905695 6.17043563413
O 0.16234439216 1.5199113636900003 1.3468944256300002
O 5.542569057160001 1.5045688536900004 1.3175624006300002
O 2.85687042106 3.07348854139 1.32642155823
O 8.23709508606 3.05814603139 1.29708953323
O 2.59100871842 6.12316438925 6.2202405265300005
O 7.971233383419999 6.10782187925 6.19090850153
O 1.993201715645 1.5871593473300003 8.476377094734998
O 7.373426380645 1.5718168373300003 8.447045069735
O 3.479176584715 7.62605362915 3.542230026585
O 8.859401249714999 7.61071111915 3.512898001585
O 0.7849101850150001 6.16431459455 3.562361314285
O 6.165134850015001 6.14897208455 3.533029289285
O 4.687468115345 3.0488983819300004 8.456245807034998
O 10.067692780345 3.0335558719300004 8.426913782034998
O 4.54624738986 0.02904177695 8.80165157813
O 9.92647205486 0.01369926695 8.77231955313
O 0.92978429414 9.186640680050001 3.88382453987
O 6.310008959139999 9.171298170050001 3.85449251487
O 3.60696709248 4.605429898670001 3.886169196430001
O 8.98719175748 4.590087388670001 3.856837171430001
O 1.86906459152 4.61025255833 8.79930692157
O 7.249289256520002 4.59491004833 8.76997489657
