80   
   
Al 1.5949053832500002 7.27098619914 6.38157062786
Al 6.571846398250001 7.25458051914 6.36715255786
Al 3.43347515419 1.26334895474 1.7958836500600002
Ga 8.41041616919 1.24694327474 1.78146558006
Al 0.95065314239 2.99717181346 1.80122675854
Ga 5.927594157390001 2.98076613346 1.78680868854
Al 4.07772739505 5.53716334042 6.37622751938
Al 9.054668410050002 5.52075766042 6.36180944938
Al 0.909271996985 5.618142454160001 -0.00865895161
In 5.886213011985001 5.601736774160001 -0.02307702161
Al 4.108761998015001 2.91263723584 4.57175396161
Al 9.085703013015 2.89623155584 4.55733589161
Al 1.615146326115 1.3489881776 4.58066265245
Al 6.592087341115001 1.3325824976000002 4.56624458245
Al 3.4291479288850004 7.1908155324 9.15593303755
In 8.406088943885 7.1744098524 9.14151496755
Al 0.86319897576 0.26253904254 9.16162782576
Al 5.84013999076 0.24613336254 9.14720975576
Al 4.18104275872 8.277246619419998 4.55662086288
Al 9.15798377372 8.260840939419998 4.54220279288
Al 1.6802685972200002 4.5266731810200005 4.56789429228
Al 6.657209612220001 4.51026750102 4.55347622228
Al 3.3639731372600004 4.01311248094 9.150354396360001
Al 8.340914152260002 3.99670680094 9.13593632636
Al 3.434261587345001 1.3370637304600002 7.20821840739
Al 8.411202602345 1.32065805046 7.193800337390001
Al 1.598845796895 7.19889574702 2.62046599293
Al 6.575786811895 7.18249006702 2.60604792293
Al 4.082115214295 5.60175566206 2.61497508829
In 9.059056229295 5.58534998206 2.60055701829
Al 0.950992169945 2.9342038154200005 7.21370931203
Al 5.927933184945001 2.9177981354200004 7.19929124203
O 4.168041660265 5.709506618980001 8.17380380027
O 9.144982675265002 5.693100938980001 8.159385730269998
O 0.8706328990950002 2.8283659507400003 3.59966274421
O 5.847573914095001 2.81196027074 3.58524467421
O 3.3545734248950003 1.43625002642 3.59395014533
O 8.331514439895 1.41984434642 3.5795320753300004
O 1.6841011344650003 7.1016225433 8.179516399149998
O 6.6610421494650005 7.0852168633 8.16509832915
O 2.6296634020650003 0.07394718682 5.76247930563
O 7.6066044170649985 0.05754150682 5.74806123563
O 2.395145740015 8.459160700340004 1.16737887981
O 7.372086755015002 8.442755020340002 1.15296080981
O 4.8701381538150015 4.33338930082 1.16462220413
O 9.847079168815002 4.31698362082 1.15020413413
O 0.154670988265 4.19971858634 5.76523598131
O 5.131612003265 4.18331290634 5.75081791131
O 0.100956883635 7.06563668994 1.10213809721
O 5.077897898635 7.04923100994 1.08772002721
O 4.923432094285 1.4673268129 5.68094407735
O 9.900373109285 1.4509211328999998 5.66652600735
O 2.439267865685 2.7911013503400004 5.68673057431
O 7.4162088806850015 2.7746956703400003 5.67231250431
O 2.585121112235 5.7418621525 1.09635160025
O 7.562062127235 5.725456472500001 1.08193353025
O 4.87768969221 7.1229432594 5.8309659577
O 9.854630707210003 7.1065375794 5.8165478877000005
O 0.14759213455 1.4103270601200002 1.2640152399800002
O 5.12453314955 1.39392138012 1.24959716998
O 2.64081632655 2.85437869132 1.2552358707800002
O 7.61775734155 2.8379730113200003 1.24081780078
O 2.38446550021 5.678891628200001 5.8397453269
O 7.36140651521 5.6624859482000005 5.8253272569000005
O 1.824170776075 1.45414682204 7.93747633141
O 6.801111791075 1.43774114204 7.923058261409999
O 3.213085729245 7.0832384506 3.34062117635
O 8.190026744245001 7.0668327706 3.32620310635
O 0.7201411657450002 5.724613553000001 3.34930817295
O 5.697082180745 5.708207873000001 3.33489010295
O 4.317115339575 2.81277171964 7.92878933481
O 9.294056354575002 2.79636603964 7.91437126481
O 4.18438488539 0.00294914288 8.244087868219998
O 9.16132590039 -0.01345653712 8.22966979822
O 0.8546573176100002 8.53504976312 3.65780768578
O 5.83159833261 8.51864408312 3.64338961578
O 3.32920232581 4.27259558984 3.65519880626
O 8.306143340810001 4.25618990984 3.64078073626
O 1.70983987719 4.26540331616 8.246696747739998
O 6.686780892190001 4.24899763616 8.23227867774
