60   
   
In -0.0037660125 0.004641537 2.04040432275
In 5.2549609075 0.053448492 2.04947936775
In -0.0167522625 0.020646837 9.07628129775
In 5.2419746575 0.069453792 9.085356342750002
In -0.0222064875 0.027369063 12.03134962725
Al 5.2365204325 0.076176018 12.04042467225
In -0.0092202375 0.011363763 4.995472652249999
Al 5.2495066825 0.060170718 5.00454769725
Al 2.60288041085097 1.55764333066332 6.73214397767232
In 7.86160733085097 1.6064502856633198 6.74121902267232
Al 2.5898941608509696 1.57364863066332 13.76802095267232
In 7.84862108085097 1.6224555856633198 13.77709599767232
Al 2.6104124358509697 1.54836025666332 2.65133533217232
In 7.86913935585097 1.59716721166332 2.66041037717232
Al 2.5974261858509697 1.56436555666332 9.68721230717232
In 7.85615310585097 1.61317251166332 9.69628735217232
Al -0.0491922658509701 3.06184282833668 11.414822662827682
In 5.209534654149029 3.11064978333668 11.42389770782768
Al -0.0362060158509701 3.0458375283366803 4.37894568782768
In 5.222520904149029 3.09464448333668 4.38802073282768
Al -0.0416602408509701 3.0525597543366803 7.334014017327679
In 5.2170666791490286 3.10136670933668 7.34308906232768
Al -0.0286739908509701 3.03655445433668 0.29813704232768
In 5.2300529291490285 3.08536140933668 0.30721208732768
O 1.58690113176 0.022791157365 3.520688226135
O 6.84562805176 0.071598112365 3.529763271135
O 1.7967801659899998 3.199002812045 3.514038106865
O 7.05550708599 3.247809767045 3.523113151865
O 9.70148583725 1.47802037559 3.5316432645
O 4.44275891725 1.42921342059 3.5225682195
O 0.7644400040099999 1.411200272955 10.552119888135
O 6.02316692401 1.4600072279549998 10.561194933135
O -1.88153874725 3.18098966441 10.5435897755
O 3.37718817275 3.22979661941 10.5526648205
O 3.64585328824 0.058026397635 10.560140768865
O 8.90458020824 0.106833352635 10.569215813865
O 4.193547555110969 1.57579295102832 8.212427881057318
O 9.452274475110968 1.6245999060283198 8.22150292605732
O 1.81623391934097 0.17381212070832 8.211373716787318
O 7.07496083934097 0.22261907570832 8.22044876178732
O 1.7906784206009696 2.93340825925332 8.20523282942232
O 7.049405340600969 2.98221521425332 8.21430787442232
O 3.3970589273609697 2.93219146661832 1.17210559305732
O 8.655785847360969 2.9809984216183203 1.18118063805732
O 3.4226144261009694 0.17259532807332 1.17824648042232
O 8.681341346100972 0.22140228307332 1.18732152542232
O 1.01974529159097 1.53021063629832 1.17105142878732
O 6.2784722115909695 1.57901759129832 1.18012647378732
O 1.5414748784090295 3.07999244870168 12.89510656621268
O 6.800201798409029 3.12879940370168 12.904181611212682
O -0.8358387573609701 1.6780116183816802 12.89405240194268
O 4.4228881626390315 1.7268185733816803 12.903127446942682
O -0.8613942561009698 4.43760775692668 12.88791151457768
O 4.39733266389903 4.48641471192668 12.89698655957768
O 0.7449862506590299 4.436390964291679 5.85478427821268
O 6.00371317065903 4.48519791929168 5.86385932321268
O 0.7705417493990299 1.6767948257466805 5.86092516557768
O 6.02926866939903 1.72560178074668 5.87000021057768
O -1.6323273851109703 3.03441013397168 5.85373011394268
O 3.626399534889031 3.08321708897168 5.86280515894268
