80   
   
Al -0.01640449 -0.04911079 6.154165215
In -0.04921347 -0.14733237 18.462495645
Ga 4.999728719999999 2.87639169 6.190056805
In 4.96691974 2.77817011 18.498387235
In 3.33589171 -0.03425548 6.163131865
Ga 3.30308273 -0.13247706 18.471462295
Al 1.64743252 2.8615363800000004 6.181090155
Al 1.61462354 2.7633148000000003 18.489420585
In 0.0 0.0 0.0
In -0.03280898 -0.09822158 12.30833043
In 5.01613321 2.92550248 0.03589159
In 4.983324229999999 2.8272809 12.34422202
Ga 3.3522962 0.01485531 0.00896665
Ga 3.31948722 -0.08336627 12.31729708
In 1.66383701 2.9106471700000003 0.02692494
In 1.63102803 2.81242559 12.33525537
In -0.0164088175939999 1.910730733699 3.092042188059
Ga -0.0492177975939999 1.812509153699 15.400372618059002
In -1.7048680075940004 4.806522593699 3.110000478059
In -1.7376769875940004 4.708301013699001 15.418330908059001
Ga 3.335887382406 1.925586043699 3.101008838059
Ga 3.3030784024060003 1.827364463699 15.409339268059002
Al 1.6474281924059997 4.821377903699 3.118967128059
In 1.6146192124059997 4.723156323699 15.427297558059001
In 1.647436847594 0.901694856301 9.243213181941002
In 1.614627867594 0.803473276301 21.551543611941
Ga -0.041022342406 3.797486716301 9.261171471941
Al -0.073831322406 3.699265136301 21.569501901941
Al 4.999733047594001 0.916550166301 9.252179831941
Al 4.966924067594 0.8183285863009999 21.560510261940998
In 3.3112738575940006 3.812342026301 9.270138121941
In 3.2784648775940006 3.714120446301 21.578468551940997
O -0.0217862094159999 1.894632216737 5.109377545536
O -0.0545951894159999 1.796410636737 17.417707975536
O -1.7102453994160003 4.7904240767370005 5.127335835536
O -1.7430543794160005 4.692202496737001 17.435666265536
O 3.3305099905840003 1.909487526737 5.118344195536
O 3.2977010105840003 1.811265946737 17.426674625536
O 1.6420508005839998 4.805279386737 5.136302485536
O 1.6092418205839998 4.707057806737001 17.444632915535998
O 1.652814239416 0.917793373263 7.225877824463998
O 1.6200052594160002 0.819571793263 19.534208254464
O -0.035644950584 3.813585233263 7.243836114463998
O -0.068453930584 3.715363653263 19.552166544464
O 5.005110439416001 0.932648683263 7.234844474463999
O 4.972301459416 0.834427103263 19.543174904464
O 3.3166512494160005 3.828440543263 7.252802764463999
O 3.2838422694160005 3.730218963263 19.561133194464
O 1.642059455772 0.885596339339 11.260548539418
O 1.609250475772 0.787374759339 23.568878969418
O -0.046399734228 3.781388199339 11.278506829418
O -0.079208714228 3.683166619339 23.586837259418
O 4.994355655772001 0.9004516493389999 11.269515189418
O 4.961546675772 0.802230069339 23.577845619418
O 3.3058964657720007 3.796243509339 11.287473479418
O 3.2730874857720007 3.698021929339 23.595803909418
O -0.0110314257719999 1.926829250661 1.074706830582
O -0.0438404057719999 1.828607670661 13.383037260582
O -1.6994906157720002 4.822621110661 1.092665120582
O -1.7322995957720002 4.7243995306610005 13.400995550582
O 3.341264774228 1.941684560661 1.083673480582
O 3.308455794228 1.843462980661 13.392003910582002
O 1.6528055842279998 4.837476420661 1.101631770582
O 1.6199966042279998 4.739254840661 13.409962200582001
O -0.008202245 -0.024555395 3.0770826075
O -0.041011225 -0.122776975 15.3854130375
O 5.007930965 2.900947085 3.1129741975
O 4.975121985 2.802725505 15.4213046275
O 3.344093955 -0.009700085 3.0860492575
O 3.311284975 -0.107921665 15.3943796875
O 1.6556347649999998 2.886091775 3.1040075475
O 1.622825785 2.7878701950000004 15.4123379775
O -0.024606735 -0.073666185 9.2312478225
O -0.057415715 -0.171887765 21.5395782525
O 4.991526475 2.851836295 9.2671394125
O 4.958717494999999 2.753614715 21.5754698425
O 3.327689465 -0.058810875 9.240214472500002
O 3.294880485 -0.157032455 21.5485449025
O 1.6392302749999998 2.8369809850000003 9.2581727625
O 1.606421295 2.738759405 21.5665031925
