80   
   
Al -0.0186639825 -0.0538002475 6.1524119425
In -0.0559919475 -0.1614007425 18.4572358275
Al 4.981981982500001 2.9032034375 6.192210997499999
In 4.9446540175 2.7956029425 18.4970348825
In 3.3350003925 -0.0187135325 6.1626934625
In 3.2976724275 -0.1263140275 18.4675173475
In 1.6283176075000003 2.8681167225 6.1819294775
Al 1.5909896425000003 2.7605162275 18.4867533625
In 0.0 0.0 0.0
In -0.037327965 -0.107600495 12.304823885
In 5.000645965 2.957003685 0.039799055
In 4.963318 2.8494031900000003 12.34462294
Al 3.353664375 0.035086715 0.01028152
In 3.3163364100000003 -0.07251378 12.315105405
In 1.6469815900000002 2.92191697 0.029517535
Ga 1.6096536250000002 2.814316475 12.33434142
Al -0.0292303995434999 1.9091553263425 3.092455529465
Ga -0.0665583645434999 1.8015548313425 15.397279414464998
Al -1.7359131845435 4.7959855813425 3.111691544465
In -1.7732411495435 4.6883850863425005 15.416515429464999
Al 3.3244339754565004 1.9442420413425 3.102737049465
In 3.2871060104565 1.8366415463425 15.407560934464998
In 1.6177511904565005 4.831072296342501 3.121973064465
Ga 1.5804232254565005 4.723471801342501 15.426796949464999
In 1.6388840245435 0.9051611486575 9.241885890535
Al 1.6015560595435 0.7975606536575 21.546709775535003
Ga -0.0677987604564998 3.7919914036575 9.261121905535
In -0.1051267254564998 3.6843909086575 21.565945790535
In 4.9925483995435 0.9402478636575 9.252167410535002
In 4.9552204345435005 0.8326473686574999 21.556991295535003
Ga 3.2858656145435003 3.8270781186575 9.271403425534999
Al 3.2485376495435 3.7194776236574993 21.576227310535003
O -0.0353484530069999 1.891519605212 5.1092161642165
O -0.0726764180069999 1.783919110212 17.4140400492165
O -1.742031238007 4.778349860212 5.1284521792165
O -1.779359203007 4.670749365212 17.4332760642165
O 3.3183159219930003 1.926606320212 5.119497684216499
O 3.2809879569930005 1.819005825212 17.4243215692165
O 1.6116331369930004 4.813436575212 5.1387336992165
O 1.5743051719930004 4.705836080212 17.4435575842165
O 1.645002078007 0.922796869788 7.225125255783498
O 1.607674113007 0.8151963747879999 19.5299491407835
O -0.0616807069929998 3.809627124788 7.244361270783499
O -0.0990086719929998 3.702026629788 19.5491851557835
O 4.998666453007 0.9578835847879998 7.235406775783499
O 4.961338488007001 0.8502830897879998 19.5402306607835
O 3.2919836680070005 3.844713839788 7.254642790783498
O 3.254655703007 3.737113344788 19.5594666757835
O 1.63276597108 0.8875254275269999 11.2586465252865
O 1.5954380060800002 0.7799249325269999 23.563470410286495
O -0.0739168139199998 3.774355682527 11.2778825402865
O -0.1112447789199998 3.666755187527 23.582706425286496
O 4.986430346080001 0.922612142527 11.268928045286499
O 4.94910238108 0.8150116475269998 23.573751930286495
O 3.27974756108 3.809442397527 11.2881640602865
O 3.2424195960800004 3.7018419025269993 23.592987945286495
O -0.0231123460799999 1.926791047473 1.0756948947135
O -0.0604403110799999 1.819190552473 13.380518779713501
O -1.72979513108 4.813621302473 1.0949309097134998
O -1.76712309608 4.706020807473 13.3997547947135
O 3.33055202892 1.961877762473 1.0859764147134998
O 3.2932240639200003 1.854277267473 13.3908002997135
O 1.6238692439200004 4.848708017473 1.1052124297135
O 1.5865412789200004 4.741107522473 13.410036314713501
O -0.00933199125 -0.02690012375 3.07620597125
O -0.04665995625 -0.13450061875 15.381029856249997
O 4.9913139737500005 2.93010356125 3.11600502625
O 4.95398600875 2.82250306625 15.420828911249997
O 3.3443323837500003 0.00818659125 3.08648749125
O 3.30700441875 -0.09941390375 15.39131137625
O 1.6376495987500002 2.89501684625 3.10572350625
O 1.60032163375 2.78741635125 15.410547391249997
O -0.02799597375 -0.08070037125 9.22861791375
O -0.06532393875 -0.18830086625 21.53344179875
O 4.97264999125 2.8763033137500003 9.26841696875
O 4.935322026250001 2.76870281875 21.57324085375
O 3.32566840125 -0.04561365625 9.23889943375
O 3.28834043625 -0.15321415125 21.54372331875
O 1.6189856162500005 2.84121659875 9.25813544875
O 1.5816576512500002 2.73361610375 21.56295933375
