80   
   
Ga 6.9131390875 2.3034856275 6.8754687075
Ga 2.3027686275 6.886651542500001 6.9019792375
Ga 6.8836525625 6.910675932500001 2.2886919175
Ga 6.8998115475 6.900348472500001 6.8854885125
Ga 2.2866096425 6.896979002500001 2.3051826425
Al 6.8969801025 2.3138130875000003 2.2786721125
Al 2.3160961675 2.2897886975 6.891959432499999
Ga 2.2999371825 2.3001161575 2.2951628375
Ga 6.89930209772 4.294494106540001 4.58139896576
Ga 2.27277265272 8.887987481539998 0.01111290076
Al 6.88133056728 4.929994913460001 -0.01403493576
Al 4.59211178402 6.899366004780001 4.28275340904
Al 0.02455538902 2.2784787697800004 8.886020924039999
Ga -0.00273351402 6.88426454022 4.9244084709600005
Al 4.29535493894 4.594137193760001 6.8898453418
Al 8.889566413939999 0.02129873876 2.2665382168
Al 4.93388031606 -0.00086286876 6.8775827982
Ga 2.30044663228 4.905970523460001 4.59925238424
Ga 6.89465810728 0.3331320684600001 -0.02405474076
Al 2.28610019272 4.291124636540001 0.00109309576
Al 4.60763694598 2.3010986252200003 4.89789794096
Al -0.01889249902 6.89459200022 0.32761187596
Al 0.00839640402 2.28880622978 4.2892243290400005
Ga 4.90439379106 4.606327436240001 2.2908060082
Ga 0.33683739606 -0.01455979876 6.8940735232
Al 4.29252349394 0.00760180876 2.2830289418
Ga 2.31377417228 0.3091076784600001 4.58923257924
Ga 4.59147796098 2.3114260852200004 0.30110134596
Al 0.30735087106 4.592630506240001 2.3072967332
Ga 6.885974557719999 8.89135695154 4.59141877076
Al 4.60827076902 6.889038544780001 8.879550004039999
Al 8.892397858939999 4.607834123760001 6.8733546168
O 5.71111167284 3.59818131047 6.01838412115
O 3.4972793096 8.184586504110001 7.764714993869998
O 8.0796041988 5.61986337449 1.41738098413
O 5.71137664376 5.59853038593 7.7511482758499985
O 6.02743048771 5.710004226240001 3.58548366429
O 7.778474829829999 3.49833264632 8.17127024029
O 1.43050256437 8.082173203080004 5.61138800331
O 7.76296394309 5.710651499360001 5.583486467109999
O 3.59743897236 6.0289890015 5.70027801501
O 8.18171442452 7.77606354202 3.48109237109
O 5.623479897679999 1.43272773878 8.07340248331
O 5.596738530439999 7.7633812927 5.69685550559
O 3.48863705716 5.602283319530001 3.16226722885
O 5.7024694204 1.0158781258900005 1.41593635613
O 1.1201445311999998 3.5806012555100004 7.763270365869999
O 3.48837208624 3.6019342440700006 1.42950307415
O 3.17231824229 3.49046040376 5.59516768571
O 1.42127390017 5.70213198368 1.00938110971
O 7.7692461656299985 1.11829142692 3.56926334669
O 1.43678478691 3.4898131306400004 3.59716488289
O 5.60230975764 3.1714756285 3.48037333499
O 1.0180343054799998 1.42440108798 5.69955897891
O 3.57626883232 7.76773689122 1.10724886669
O 3.60301019956 1.4370833373 3.48379584441
O 1.08458222784 8.191674685470002 1.44809805615
O 8.091490784599998 3.611748049110001 3.14140786887
O 3.5120478038000003 0.99897613949 6.02064849913
O 1.11150227876 0.99829807093 3.16082260085
O 1.4598740927099998 1.08911699124 8.188751179289998
O 3.1519453848299994 8.091826021320001 3.60098417529
O 6.02471403937 3.50933474808 0.98808087831
O 3.16308957809 1.11041918436 0.99316079211
O 8.19165044736 1.4561505465 1.07697089001
O 3.61415802952 3.15517630702 8.08435988609
O 0.99695045268 6.026221113780001 3.50311641831
O 0.99686416544 3.1631489777 1.10652983059
O 8.115166502160001 1.00878994453 7.732553293849999
O 1.1082579454 5.588716580890001 6.03924348113
O 5.687700926200001 8.201488490510004 3.16000285087
O 8.08824645124 8.202166559070001 6.01982874915
O 7.73987463729 8.111347638760002 0.99190017071
O 6.04780334517 1.10863860868 5.57966717471
O 3.1750346906299995 5.691129881920001 8.192570471689999
O 6.03665915191 8.090045445640001 8.187490557889998
O 1.0080982826399998 7.7443140835 8.10368045999
O 5.585590700479999 6.04528832298 1.09629146391
O 8.202798277319998 3.17424351622 5.67753493169
O 8.202884564559998 6.0373156523 8.074121519409998
