80   
   
Ga 7.430650442500002 2.47206439 7.4238017
Ga 2.4764165925 7.419917825 7.43306409
Ga 7.4240326425 7.42898197 2.478128705
Ga 7.4276141475 7.423270364999999 7.429283355
Ga 2.4728350875 7.425629429999998 2.4819094400000004
Ga 7.4270689375 2.477775995 2.47264705
Ga 2.4794528875 2.46871185 7.427582435
Ga 2.4758713825 2.474423455 2.4764277850000003
Ga 7.42754801056 4.6138411737 4.95059244996
Ga 2.46973265556 9.5674062137 0.00870018996
In 7.42355356944 5.2929167913 0.00018330504
In 4.94998107516 7.424838286639998 4.618917881300001
Ga 0.00540132016 2.46456816664 9.568371611300002
In -0.00072939516 7.420708968359999 5.2960556487
In 4.61685208376 4.94576313478 7.42868998498
In 9.56750442876 0.00362130478 2.4682729449800003
Ga 5.2932512462400005 -0.00498689478 7.42269415002
In 2.4759375194400004 5.2838526463 4.95511869004
In 7.42658986444 0.3417108163 -0.00529834996
In 2.4727689505600003 4.6162002387 0.00321853496
In 4.953504454840001 2.47285553336 5.2867932587
In -0.00431090016 7.42642057336 0.3449009987000001
In 0.00181981516 2.47027977164 4.6172169613000005
In 5.28663344624 4.95193068522 2.47702115502
In 0.34205369124 -0.00833943478 7.42647488502
In 4.61630687376 0.00026876478 2.47205367998
In 2.47897381444 0.3326466713 4.94963703504
Ga 4.94992294984 2.47856713836 0.3356386087000001
Ga 0.33543589124 4.94857814522 2.48080189002
In 7.42451171556 9.5650471487 4.95607410496
In 4.953562580160001 7.419126681639998 9.5700725313
In 9.56804963876 4.94911567478 7.42490924998
O 6.141809520070001 3.86850659629 6.495513443610001
O 3.76354504455 8.815955788609998 8.36444399981
O 8.711526919050002 6.03468732719 1.54478281299
O 6.141832341330001 6.02508483791 8.35953759359
O 6.495006923270001 6.139427466369999 3.87363986418
O 8.361696130549998 3.75839754841 8.820741763420001
O 1.54379203105 8.708211773589998 6.03897448718
O 8.35821874013 6.138197761629999 6.030921735220001
O 3.872293935170001 6.49152153528 6.143667162590001
O 8.820630720849998 8.35926909228 3.76539329787
O 6.03591474675 1.5388072331199998 8.71113752513
O 6.02987442223 8.354636689319998 6.14407986441
O 3.76167600993 6.029187223709999 3.41019769639
O 6.13994048545 1.08173803139 1.54126714019
O 1.19195861095 3.86300649281 8.36092832701
O 3.76165318867 3.87260898209 1.5461735464100002
O 3.40847860673 3.75826635363 6.03207127582
O 1.54178939945 6.139296271589999 1.08496937658
O 8.359693498949998 1.1894820464099998 3.86673665282
O 1.54526678987 3.75949605837 3.87478940478
O 6.03119159483 3.40617228472 3.76204397741
O 1.08285480915 1.5384247277199998 6.14031784213
O 3.8675707832500006 8.35888658688 1.19457361487
O 3.87361110777 1.5430571306799998 3.76163127559
O 1.18399416507 8.822071636289996 1.55362118361
O 8.714197389550002 3.87381395861 3.40402695981
O 3.76694716405 1.07441720719 6.49423654299
O 1.19008957633 1.07623792791 3.40668202359
O 1.55042716827 1.1791573463699998 8.823093594180001
O 3.40388077555 8.711962588409998 3.878849503420001
O 6.494444376050001 3.76606994359 1.07855744718
O 3.40647597513 1.1893508516299998 1.07806616522
O 8.822946280170001 1.5493797052799998 1.18325012259
O 3.8760509658500006 3.39899897228 8.71484702787
O 1.07809939175 6.49237227312 3.76924526513
O 1.07813165723 3.40578977932 1.19122429441
O 8.719491364930002 1.0756221837100002 8.352089956389998
O 1.18928814045 6.02387986139 6.501684180190001
O 6.136538365950001 8.823276612809998 3.41147459701
O 8.713395953670004 8.821455892089999 6.499029116410001
O 8.353058361729998 8.718536473629998 1.08261754582
O 6.499604754450001 1.18573123159 6.0268616365800005
O 3.40904115395 6.131623876409999 8.827153692820001
O 6.497009554870001 8.708342968369998 8.82764497478
O 1.08053924983 8.34831411472 8.722461017410001
O 6.02743456415 6.49869484772 1.19086411213
O 8.825386138250002 3.40532154688 6.136465874870001
O 8.825353872770004 6.491904040680001 8.71448684559
