40   
   
Al 3.260811362901385 -0.0400188695125782 2.8642162608193487
Ga 6.361896417098615 -0.0743678604874218 11.07118611918065
In -0.05324203875 0.00188995875 1.78091795875
Al -0.37269427125 0.01322971125 12.46642571125
In 6.628106610848615 -0.0838176542374218 2.1665963254306506
Al 2.9946011691513847 -0.0305690757625782 11.768806054569348
Ga 10.750206519151384 1.319472234237422 4.363095024569349
Al 8.933453605848614 1.3460965257625783 9.16419961043065
Al 3.909131560848615 1.4108497257625785 9.32017025543065
Al 5.725884474151385 1.3842254342374218 4.519065669569349
Al 6.468380590825693 -0.0781477791312891 7.509350341034674
Ga 3.154327189174307 -0.0362389508687109 6.426052038965325
Ga -0.212968155 0.007559835 7.123671835
Al 5.024322045 -0.0647532 -0.155970645
Al 2.51831515 1.422354345 -0.12606855
Al 7.542637194999998 1.357601145 -0.282039195
O 4.984119066325692 -0.0618114594312891 3.427531283134674
O 4.638588713674308 -0.0525752705687109 10.507871096865324
O 3.316183087460748 -0.0419844267637749 1.0120614412459126
O 6.306524692539251 -0.0724023032362251 12.923340938754087
O 7.401701509839251 1.3036487130637753 3.306505478254087
O 2.232822194960748 1.3750479713362251 10.536577104945913
O 7.257636570160749 1.426673246936225 10.376759801745912
O 12.426515885039251 1.355273988663775 3.146688175054087
O -0.10861375905 0.00385551585 3.63307263585
O -0.31732255095 0.01126415415 10.61427103415
O 8.272094347825693 -0.1058238513312891 0.9056616464346744
O 1.3506134321743075 -0.0085628786687109 13.029740733565324
O 10.891142103825693 1.3734246674687107 0.7745503544346745
O 8.793010451860749 1.408522566836225 12.748897619245913
O 3.768195976174308 1.3568972925312892 12.908714925565326
O 5.866327628139252 1.321799393163775 0.9343676607540874
O 8.191688294249998 -0.09994036905 8.072665363349998
O 1.43101948575 -0.01444636095 5.86273701665
O 6.523752214898615 -0.0801133350874218 5.657195524580651
O 3.098955565101385 -0.0342733949125782 8.278206855419347
O 10.60927083825 1.26551980215 7.951639555349998
O 9.07389695655 1.28367048225 5.57950173785
O 4.05006724175 1.46480215785 5.73162572465
O 5.58544112345 1.44665147775 8.103763542149999
