80   
   
Al 7.052538595 2.3489339875 7.0233850075
In 2.34951288 7.0304468675 7.0451173025
Al 7.02933388 7.0503422275 2.3398154725
In 7.042022295 7.0413098925 7.0321361925
Al 2.3368244650000003 7.0394792025 2.3527965825
Ga 7.039850179999999 2.3579663225 2.3310642875
Al 2.36002918 2.3380709625 7.036366117499999
Ga 2.347340765 2.3471032975 2.3440453975
Al 7.0416513459 4.38055654596 4.68100515942
Al 2.3259372159 9.071101760959996 0.01041673442
Al 7.0275327141 5.02775200404 -0.01012539942
Ga 4.68856056778 7.041008746279999 4.37338857854
In 0.01925586778 2.32873748128 9.069939223539999
Ga -0.00222322278 7.02891732372 5.02452530646
Ga 4.38193509728 4.6889517418 7.035133870479999
Ga 9.07227239728 0.0164711968 2.32108085548
Al 5.030632677720001 -0.0019467918 7.02461725452
Al 2.3477117141 5.00785664404 4.695176430579999
In 7.0380490141 0.33537609904 -0.01887658442
Al 2.3364535159 4.37872585596 0.00166554942
Ga 4.70080249222 2.34740444372 5.00279301146
Ga -0.01491163778 7.03794965872 0.33220458646
Ga 0.00656745278 2.33776981628 4.37761850354
Ga 5.0074279627200005 4.699461448199999 2.34104771952
In 0.33812326272 -0.0128098168 7.037598364519999
Al 4.37976298228 0.0056081718 2.33406196548
Al 2.3582280141 0.31548073904 4.68642524558
Ga 4.68811407722 2.35643677872 0.31047229146
Ga 0.31491854772 4.688598423199999 2.35402882952
Ga 7.0311350459 9.072932450959998 4.689756344419999
Ga 4.701248982779999 7.03197641128 9.06570929854
Ga 9.074444512279996 4.6998147668 7.022152760479999
O 5.82713512848 3.67105768519 6.14707163491
O 3.56898515332 8.354823180229998 7.92636634343
O 8.249966502480001 5.73161468777 1.45181625437
O 5.82732086572 5.71353742181 7.915199742289999
O 6.153454481010001 5.82573512503 3.66321505612
O 7.935574260049998 3.56844685303 8.34645430996
O 1.46100873895 8.25096947257 5.72659861624
O 7.923370169989998 5.825881524369999 5.70418599268
O 3.67147861153 6.15369197751 5.8198080195
O 8.35394345853 7.9332238635899985 3.55780340946
O 5.734526992269999 1.46135553721 8.24540384494
O 5.71345858767 7.922761596689998 5.8174387011
O 3.56222793152 5.71735550481 3.2291099550899998
O 5.82037790668 1.03359000977 1.4498152465699998
O 1.13939655752 3.65679850223 7.924365335629998
O 3.56204219428 3.6748757681899993 1.4609818477099998
O 3.23590857899 3.56267806497 5.71296653388
O 1.45378879995 5.819966336969999 1.02972728004
O 7.928354321049999 1.1374437174299998 3.64958297376
O 1.46599289001 3.5625316656299995 3.67199559732
O 5.71788444847 3.23472121249 3.5563735705
O 1.03541960147 1.4551893264099998 5.81837818054
O 3.65483606773 7.9270576527899985 1.1307777450599998
O 3.67590447233 1.4656515933099998 3.5587428889
O 1.11142099848 8.361602900189999 1.4764832099099998
O 8.259322453319998 3.68234263523 3.21231332843
O 3.5806618024800003 1.0193434227699998 6.14836689937
O 1.1326393357199998 1.01933082681 3.22710894729
O 1.48414978101 1.1134638600299998 8.35976570112
O 3.2198601300500003 8.258992068029999 3.67586588496
O 6.151346038950001 3.57848892757 1.0125456012399998
O 3.22868863999 1.13167492937 1.01609519768
O 8.361815911530002 1.4812114325099996 1.1057550045
O 3.68463875853 3.22095259859 8.25435405446
O 1.01881286227 6.15190075221 3.57481541994
O 1.01877705767 3.22855500169 1.1293479060999998
O 8.277942061520001 1.02681028981 7.8996983800899985
O 1.13004060668 5.706070554769999 6.16386826157
O 5.808701257520001 8.369069767229998 3.22781469063
O 8.25672372428 8.369082363189998 6.14907264271
O 7.90521327899 8.27494932997 1.01641588888
O 6.16950292995 1.12942112197 5.70031570504
O 3.23801702105 5.809924262429999 8.363635988759999
O 6.16067442001 8.256738260629998 8.360086392319998
O 1.02754714847 7.907201757489998 8.2704265855
O 5.704724301469999 6.16746059141 1.1218275355399998
O 8.370550197730001 3.23651243779 5.80136617006
O 8.37058600233 6.15985818831 8.2468336839
