80   
   
In -0.06684331 -0.0543759225 5.94750463
Al -0.20052993 -0.1631277675 17.84251389
Al 4.51013225 2.9135716025 6.024017625
Al 4.37644563 2.8048197575 17.919026885
In 3.078521615 0.1083471975 5.9836143
Al 2.944834995 -0.0004046475 17.87862356
Al 1.364767325 2.7508484825 5.987907955
Al 1.231080705 2.6420966375 17.882917215
In 0.0 0.0 0.0
Al -0.13368662 -0.108751845 11.89500926
Al 4.57697556 2.967947525 0.076512995
In 4.44328894 2.85919568 11.971522255
Al 3.145364925 0.16272312 0.03610967
Al 3.011678305 0.053971275 11.93111893
Al 1.431610635 2.805224405 0.040403325
Al 1.297924015 2.69647256 11.935412585000002
In -0.1274601352115 1.788539011227 2.988649818434
In -0.2611467552115 1.679787166227 14.883659078434
Al -1.8412144252115004 4.431040296227 2.992943473434
Al -1.9749010452115003 4.322288451227 14.887952733434
Al 3.0179047897885 1.951262131227 3.024759488434
Al 2.8842181697885 1.842510286227 14.919768748434
In 1.3041504997884992 4.593763416227 3.029053143434
Al 1.1704638797884992 4.485011571227 14.924062403434
Al 1.4253841502115 0.9079335487729998 8.946762766565998
Al 1.2916975302115 0.7991817037729998 20.841772026566
Al -0.2883701397884998 3.550434833773 8.951056421565998
Al -0.4220567597884999 3.441682988773 20.846065681566
Al 4.5707490752115 1.070656668773 8.982872436566
Al 4.4370624552115006 0.9619048237729998 20.877881696566
Al 2.8569947852115005 3.713157953773 8.987166091565998
Al 2.7233081652115008 3.604406108773 20.882175351566
O -0.1493713722295 1.7707145838314995 4.938241836148
O -0.2830579922295 1.6619627388314997 16.833251096148
O -1.8631256622295005 4.4132158688315 4.942535491148
O -1.9968122822295005 4.3044640238315 16.837544751148
O 2.9959935527705 1.9334377038315 4.974351506148
O 2.8623069327705 1.8246858588315 16.869360766147995
O 1.282239262770499 4.5759389888315 4.978645161148
O 1.1485526427704993 4.4671871438315 16.873654421148
O 1.4472953872295 0.9257579761685 6.997170748852
O 1.3136087672294998 0.8170061311684998 18.892180008852
O -0.2664589027704999 3.5682592611685 7.001464403851999
O -0.4001455227704999 3.4595074161684995 18.896473663852
O 4.5926603122295 1.0884810961685 7.033280418852
O 4.458973692229501 0.9797292511684998 18.928289678852
O 2.8789060222295006 3.7309823811685 7.037574073852
O 2.7452194022295004 3.622230536168499 18.932583333852
O 1.4034729131935 0.8901091213774999 10.89635478428
O 1.2697862931935 0.7813572763774999 22.79136404428
O -0.3102813768064999 3.5326104063775 10.90064843928
O -0.4439679968064998 3.4238585613775 22.79565769928
O 4.5488378381935 1.0528322413774998 10.93246445428
O 4.4151512181935 0.9440803963775 22.82747371428
O 2.8350835481935004 3.6953335263775 10.93675810928
O 2.7013969281935006 3.5865816813775 22.83176736928
O -0.1055488981935 1.8063634386225 1.03905780072
O -0.2392355181935 1.6976115936224998 12.93406706072
O -1.8193031881935005 4.4488647236225 1.04335145572
O -1.9529898081935004 4.3401128786225 12.93836071572
O 3.0398160268065 1.9690865586225 1.07516747072
O 2.9061294068065 1.8603347136225 12.97017673072
O 1.3260617368064993 4.6115878436225 1.07946112572
O 1.192375116806499 4.5028359986225 12.97447038572
O -0.033421655 -0.02718796125 2.973752315
O -0.167108275 -0.13593980625 14.868761575
O 4.543553905 2.9407595637499995 3.05026531
O 4.409867285 2.8320077187499995 14.94527457
O 3.11194327 0.13553515875 3.009861985
O 2.97825665 0.02678331375 14.904871245
O 1.39818898 2.77803644375 3.01415564
O 1.26450236 2.66928459875 14.9091649
O -0.100264965 -0.08156388375 8.921256944999998
O -0.233951585 -0.19031572875 20.816266205
O 4.476710595 2.88638364125 8.997769939999998
O 4.343023975 2.77763179625 20.8927792
O 3.04509996 0.08115923625 8.957366615
O 2.91141334 -0.02759260875 20.852375875
O 1.33134567 2.72366052125 8.961660269999998
O 1.19765905 2.61490867625 20.85666953
