80   
   
Al 1.59448042095 7.258398521910002 6.37178146137
Al 6.56138831595 7.240382376910001 6.35708816637
Al 3.4270843598900003 1.26008564047 1.7929020825100002
In 8.393992254889998 1.24206949547 1.77820878751
Al 0.94983651697 2.9919319088900003 1.79849243495
Al 5.916744411970001 2.97391576389 1.7837991399500002
Ga 4.07172826387 5.52655225349 6.36619110893
Al 9.038636158870002 5.50853610849 6.351497813929999
Al 0.909292438025 5.6087925997250005 -0.008351100545
In 5.876200333025 5.590776454725001 -0.023044395545
Al 4.101724426974999 2.906342850275 4.564421535545
Al 9.068632321975002 2.8883267052750004 4.549728240545
Ga 1.6126173941150002 1.346032962135 4.573367976565
Al 6.579525289115 1.3280168171350002 4.558674681565
Al 3.425170830885001 7.177601757865 9.141618978435002
Al 8.392078725884998 7.159585612865 9.126925683435
Al 0.8621068137000001 0.26133111717 9.14702829402
Al 5.8290147087 0.24331497217 9.13233499902
Al 4.17562786858 8.26228660429 4.54964082794
Al 9.14253576358 8.244270459290004 4.53494753294
Ga 1.6786556734800004 4.51857781439 4.56081306864
Al 6.64556356848 4.500561669390001 4.54611977364
Al 3.3590790088000007 4.0050399070700005 9.13585605332
Ga 8.325986903799999 3.9870237620700006 9.12116275832
Al 3.428224524925 1.3333854738850002 7.196637352955
Al 8.395132419925002 1.315369328885 7.1819440579550005
Al 1.598159100715 7.186628557095001 2.616651164525
Al 6.565066995715 7.168612412095 2.601957869525
Al 4.075898516275 5.591244720035 2.610921699605
Al 9.042806411274999 5.573228575035 2.596228404605
Al 0.950485109365 2.928769310945001 7.202366817875
Al 5.9173930043650005 2.910753165945001 7.187673522875
O 4.162027350445 5.698489875145 8.160915070234998
O 9.128935245445 5.680473730145001 8.146221775235
O 0.8700318035150001 2.8233260010750003 3.594063749485
O 5.8369396985150015 2.8053098560750005 3.579370454485
O 3.348508578035001 1.4326358110550002 3.588125615845
O 8.315416473035 1.414619666055 3.5734323208450003
O 1.6835505759250002 7.089180065165 8.166853203875
O 6.650458470925 7.0711639201650005 8.152159908874998
O 2.624742339925 0.072647682345 5.753166260435
O 7.591650234925 0.054631537345 5.738472965435
O 2.393181535955 8.444680579315001 1.165904636725
O 7.360089430955002 8.426664434315 1.151211341725
O 4.861826857675 4.324741762095001 1.162748752685
O 9.828734752675 4.306725617095001 1.148055457685
O 0.156097018205 4.192586499565 5.756322144475
O 5.123004913205 4.174570354565001 5.741628849475
O 0.103151113815 7.054160090415 1.100818123185
O 5.070059008814999 7.036143945415 1.086124828185
O 4.914344420305 1.463032182925 5.671710109655
O 9.881252315305 1.445016037925 5.657016814655
O 2.4356218594650003 2.7854911572650005 5.677717799535
O 7.402529754465002 2.7674750122650003 5.663024504535
O 2.581873674655 5.731701116075 1.094810433305
O 7.548781569654999 5.7136849710750015 1.080117138305
O 4.870568548770001 7.10954397792 5.82184692447
O 9.83747644377 7.09152783292 5.80715362947
O 0.14783721159 1.4079372706000002 1.26208447005
O 5.11474510659 1.3899211256 1.2473911750500002
O 2.63651411839 2.8488425313000008 1.2532597524500002
O 7.60342201339 2.8308263863000005 1.2385664574500002
O 2.3818916419700003 5.668638717220001 5.83067164207
O 7.34879953697 5.650622572220001 5.81597834707
O 1.821460707155 1.4507698726750002 7.924839356725
O 6.788368602155001 1.4327537276750002 7.910146061725
O 3.2091527933650004 7.070587042965 3.335557970915
O 8.176060688365 7.052570897965 3.320864675915
O 0.7207831194650001 5.714970801865 3.344295743215
O 5.687691014465 5.6969546568650005 3.329602448215
O 4.309830381055001 2.8063861137750004 7.916101584425
O 9.276738276055 2.7883699687750005 7.901408289424999
O 4.17645994751 0.00111674774 8.23073257885
O 9.143367842510001 -0.01689939726 8.21603928385
O 0.85597400549 8.520818118260001 3.65247107215
O 5.82288190049 8.50280197326 3.63777777715
O 3.3241277545700005 4.264416869680001 3.64945430059
O 8.29103564957 4.24640072468 3.63476100559
O 1.70830619843 4.25751799632 8.233749350410001
O 6.675214093430001 4.23950185132 8.21905605541
