40   
   
Ga 4.43048308850558 0.8182814522539367 2.4463868780370586
Ga 2.968986718505579 3.393777822253937 2.438291763037059
Al 1.4695476835055794 0.8404891522539367 2.424119933037059
Ga 1.4258677864944205 4.246861057746064 12.076065486962943
Ga -1.5350676185055794 4.269068757746064 12.05379854196294
Ga -0.0735712485055796 1.6935723877460631 12.06189365696294
Al 0.0 0.0 0.0
Ga -0.038798475 -0.00721017375 5.42694066
Ga -0.064664125 -0.01201695625 9.0449011
Ga -0.0048815114944207 3.4135821310039374 4.225005038037059
Ga 2.9002969814944204 1.6737680789960634 10.275180381962942
Ga 2.909204105 -0.031821265 7.258187825
Ga -1.51322767 2.565882805 7.227825765
Ga 1.4477077349999998 2.543675105 7.25009271
Ga -0.0436799864944207 3.406371957253937 9.651945698037059
Ga 2.93909545649442 1.6809782527460633 4.8482397219629405
O -1.5166088930000006 4.31809313155 1.2236321788000002
O 0.0033473317999999 1.63957690675 1.2320510984000002
O 1.5627639281999997 4.294997123550001 1.2467898016
O 1.3326515417999998 0.7923530864500001 13.2533956184
O 4.412024363 0.7692570784500001 13.2765532412
O 2.892068138199999 3.4477733032500004 13.2681343216
O -0.0690283234944207 3.401661310403937 13.19754692923706
O 2.96444379349442 1.6856888995960633 1.3026384907629411
O 4.345479303494421 0.8480786442960634 6.088062130762942
O 2.94244278829442 3.320555159496064 6.080290820362942
O 1.5029813146944204 0.8693980362960634 6.066685863562942
O 1.392434155305579 4.217952173703937 8.43349955643706
O -1.4500638334944207 4.2392715657039375 8.412123289237059
O -0.0470273182944205 1.7667950505039367 8.41989459963706
O -0.025348337 -0.00471064685 3.5456012312
O -0.078114263 -0.01451648315 10.9262405288
O -0.0183316494944207 3.411082604103937 6.106344466837059
O 2.9137471194944204 1.6762676058960633 8.393840953162941
O 1.5327116094944198 2.5138778611960637 3.6084173131629407
O 2.9357481246944204 0.0414013459960633 3.616188623562941
O 4.375209598294419 2.492558469196064 3.6297935803629406
O -1.4797941282944205 2.5947917408039367 10.870391839637058
O 1.3627038605055797 2.5734723488039366 10.891768106837059
O -0.0403326546944203 5.045948864003938 10.883996796437058
