40   
   
Ga 7.992023300410346 -0.0668652638736669 13.19007355713464
Al 4.93500946 -0.069488675 -0.11096409
Al 9.018755992089655 1.3099955313736669 2.09115660411536
Al 4.0837465320896555 1.3794842063736668 2.20212069411536
Al 4.8438385075 -0.0503346425 5.12273694375
Al 1.5740924445896545 -0.0082653111263331 4.03366837536536
Al -0.12156127 0.02553871 6.978268045
Ga 8.143974887910346 -0.0987886513736669 4.4672385008846405
Al 2.3577025000000003 1.419672905 6.891287375
Ga 7.29271196 1.3501842299999998 6.780323285
Al 8.052803935410346 -0.0796346188736669 9.70093953463464
Al 4.7830578725 -0.0375652875 8.61187096625
Al 3.0874041579103446 -0.0037612663736669 11.55647063588464
Al 1.4829214920896543 0.0108887213736669 9.26736940911536
Al 5.566667927910345 1.3903729286263329 11.46948996588464
Ga 10.501677387910345 1.320884253626333 11.35852587588464
O 3.3351410169 -0.0429107183 1.11084998645
O 1.4233564697896544 0.0234026892736669 12.68672075116536
O 5.715234236100001 1.2954581089 1.02734854325
O 10.6511844193 1.3402797165 0.91386456325
O 8.203539910210345 -0.1113026192736669 1.0478871588346403
O 6.2917553631 -0.0449892117 12.62375792355
O 8.870189683900001 1.4049103510999998 12.53329802675
O 3.9342395007 1.3600887434999998 12.64678200675
O 6.544106444810344 -0.0722106946736669 5.689052577334641
O 4.8754444377 -0.0569747071 3.30838725205
O 8.924199664010345 1.2661581325263327 5.6055511341346405
O 3.9901309272103456 1.4499570901263332 5.713995334134641
O 1.5424865143896545 -0.0016252465263331 5.84801806706536
O 9.743843331010346 -0.1253666080736669 3.24542442443464
O 12.32227765181035 1.3245329547263331 3.15496452763464
O 7.386327468610346 1.2797113471263328 3.2684485076346403
O -0.1169469510103454 0.0374666780736669 10.48918348556536
O 8.084409865610345 -0.0862746834736669 7.88658984293464
O 2.263146268189655 1.3758355052736666 10.40568204236536
O 7.199096451389655 1.4206571128736667 10.292198062365362
O 4.7514519423 -0.0309252229 10.42622065795
O 3.0827899351896546 -0.0156892353263331 8.04555533266536
O 5.661224255989655 1.4342103274736668 7.95509543586536
O 10.595292992789652 1.2504113698736667 7.84665123586536
