20   
   
Ga 10.872684563950001 5.1211e-06 1.22809283975
Ga -0.17764977395 -5.3811e-06 4.88647583025
Al 4.70776533395 1.6033368911 1.24612599475
Ga 5.98726399605 1.6033337388999995 4.8684383352500005
In 9.247915250939998 1.60333640589 4.18900098687
In 1.44711407906 1.60333422411 1.92556334313
In 3.0830014809400006 -2.71411e-06 4.207038481870001
In 7.612033309060004 2.45411e-06 1.90753018813
O 8.8404401481 -6.3565e-07 5.44395000205
O 1.8545946419 3.7565e-07 0.67061866795
O 2.6755209181 1.60333113435 5.46198315705
O 8.0195084119 1.60333949565 0.65258117295
O 9.48236507323 2.75288e-06 2.65799895529
O 1.2126697167699998 -3.01288e-06 3.45656971471
O 3.31744584323 1.6033345228799998 2.67603211029
O 7.37758348677 1.60333610712 3.4385322197099994
O -1.16533846803 1.60332982017 4.56977856216
O 11.86036779803 1.60334080983 1.54478576784
O 4.99958076197 -1.94983e-06 4.55174540716
O 5.69545402803 1.68983e-06 1.5628232628399998
