80   
   
Ga 1.6716175202 7.499539180219998 6.54611998489
Ga 6.8046027302 7.47280876522 6.52155098989
Ga 3.54714418424 1.2976964556599997 1.83723365689
Ga 8.680129394239998 1.27096604066 1.81266466189
Al 0.98985499416 3.0897773616799995 1.84559863527
In 6.122840204159999 3.06304694668 1.82102964027
Ga 4.22890671028 5.7074582742 6.53775500651
Ga 9.36189192028 5.680727859199999 6.51318601151
In 0.94878379327 5.789249560795 -0.017165392585
Ga 6.081769003270001 5.762519145795 -0.041734387585
In 4.25225450673 2.999858044205 4.686462522585
Al 9.38523971673 2.973127629205 4.661893527585001
Ga 1.67737859309 1.393006971865 4.702317275125
Ga 6.81036380309 1.366276556865 4.677748280125
Ga 3.5686429669100006 7.416730153134998 9.393519224875002
Ga 8.70162817691 7.389999738134998 9.368950229875
In 0.90864663582 0.28028387856 9.41240313267
Ga 6.04163184582 0.25355346356 9.38783413767
Ga 4.3372849576600006 8.529411987399996 4.66458028859
Ga 9.47027016766 8.502681572399998 4.640011293590001
Al 1.75074531026 4.6683469605 4.685402352490001
Al 6.88373052026 4.6416165455 4.6608333574900005
Ga 3.49518628322 4.141348905459999 9.391581068770002
Al 8.62817149322 4.11461849046 9.36701207377
Ga 3.5586498436900005 1.380392249785 7.398810363695
Ga 8.69163505369 1.3536618347849998 7.374241368695
Ga 1.66820884755 7.420556699694998 2.681320364685
Al 6.80119405755 7.393826284695 2.656751369685
Al 4.22622702099 5.769364165835 2.672644929345
Ga 9.359212230990002 5.742633750835 2.648075934345
Ga 1.00063167025 3.031584783645 7.407485799035
Al 6.133616880250001 3.004854368645 7.382916804035002
O 4.32589540701 5.887157708265001 8.384550978914998
O 9.45888061701 5.860427293265 8.359981983915
O 0.91049973535 2.918164699455 3.694006095905
O 6.04348494535 2.8914342844550003 3.669437100905
O 3.46961138383 1.478304723835 3.684864975125
O 8.602596593829999 1.451574308835 3.660295980125
O 1.7667837585300004 7.327017683884998 8.393692099695
O 6.899768968529999 7.300287268884999 8.369123104695001
O 2.7235217589300005 0.078192209545 5.916219909315
O 7.85650696893 0.051461794545 5.891650914315
O 2.48912222215 8.716237811614997 1.185124378145
O 7.622107432150002 8.689507396614998 1.1605553831450002
O 5.03365420343 4.458610392795 1.182192396565
O 10.16663941343 4.431879977795 1.157623401565
O 0.17898977765 4.335819628365 5.919151890895001
O 5.311974987649999 4.309089213365 5.894582895895001
O 0.12011708003 7.284262951714998 1.124195984725
O 5.25310229003 7.257532536714998 1.099626989725
O 5.09180716889 1.509836997125 5.8263236728150005
O 10.224792378890003 1.4831065821249998 5.801754677815
O 2.5323310287300003 2.8792527866649995 5.835620022075
O 7.665316238730004 2.852522371665 5.811051027075
O 2.67959322019 5.914847162175 1.114899635465
O 7.8125784301899985 5.888116747175 1.090330640465
O 5.056004763100001 7.33979159248 5.9740490823200005
O 10.1889899731 7.31306117748 5.94948008732
O 0.15744891666 1.45500976004 1.2969729138
O 5.29043412666 1.42827934504 1.2724039188000005
O 2.73168696986 2.93858350674 1.2813898111000002
O 7.864672179860001 2.91185309174 1.2568208161
O 2.4817667099 5.85621784578 5.9896321850200005
O 7.6147519199 5.82948743078 5.96506319002
O 1.89970861217 1.505154438705 8.151215082025
O 7.032693822170001 1.478424023705 8.126646087024998
O 3.3342574341500004 7.299053974934998 3.418308866815
O 8.467242644149998 7.272323559935 3.3937398718150003
O 0.7604749955500001 5.903535460834999 3.433697933915
O 5.89346020555 5.876805045835 3.409128938915
O 4.473491050770001 2.900672952805 8.135826014924998
O 9.60647626077 2.873942537805 8.111257019925
O 4.331706131020001 0.00502546432 8.46332634962
O 9.46469134102 -0.02170495068 8.43875735462
O 0.90531877698 8.80058575668 3.74720227638
O 6.03830398698 8.773855341680001 3.72263328138
O 3.4491217749 4.4020699657 3.744580751760001
O 8.582106984900001 4.3753395507 3.72001175676
O 1.7879031331000002 4.4035412552999995 8.465947874240001
O 6.920888343100001 4.376810840299999 8.44137887924
