30   
   
Ga -0.00240403362484 0.00319302530744 2.02669403596136
In -0.01053433862484 0.01399165530744 8.880858005961358
In -0.01385657637516 0.01840423469256 11.68163390403864
Al -0.00572627137516 0.00760560469256 4.82746993403864
In 2.526777955296415 1.4953366107117807 6.596525353648309
Al 2.518647650296415 1.506135240711781 13.450689323648307
Al 2.531586022546095 1.4889505600969013 2.5431372817255884
Al 2.523455717546095 1.4997491900969009 9.397301251725587
Al -0.0320142125460948 2.9549025399030997 11.161163958274413
Al -0.0238839075460948 2.9441039099030992 4.306999988274412
In -0.0272061452964148 2.9485164892882194 7.107775886351693
Al -0.0190758402964148 2.937717859288219 0.2536119163516918
O 3.5251571883512005 0.027996510828 3.430683953474
O 0.7666852676912 1.3602016141424 3.425848365188
O -1.7882054935424 3.0502556600296 3.420686936338
O 1.7328865423088002 3.0836514858576 10.278452874812
O -0.8001967764576001 1.3610197399704 10.278421453662
O 1.5465562816488 0.026178449172 10.282836836526
O 0.9663650972724545 1.487562396232341 7.995322421160947
O 3.295867256612455 2.8523451995467406 7.995679682874947
O 3.313118155378855 0.152721105433941 7.999737804024948
O 1.7624967212300544 0.131941971261941 1.1439829524989482
O 1.745245822463655 2.8315660653747408 1.1399248313489485
O 4.091998880570055 1.496724774576341 1.1443402142129482
O -1.5924270705700547 2.9471283254236598 12.559961025787052
O 0.7370750887699453 4.311911128738058 12.560318287501053
O 0.7543259875363454 1.6122870346252591 12.564376408651054
O -0.7962954466124545 1.5915079004532593 5.708621557125052
O -0.8135463453788546 4.291131994566058 5.704563435975052
O 1.5332067127275453 2.95629070376766 5.708978818839052
