80   
   
Al -0.0644804475 -0.03115808 5.918478775
Al -0.1934413425 -0.09347424 17.755436324999998
Ga 4.5114792125 2.78212836 5.98232038
Al 4.382518317500001 2.7198122 17.81927793
Ga 3.0357086525000003 0.054452385 5.952806519999999
Al 2.9067477575000003 -0.007863775 17.78976407
Al 1.4112901125 2.696517895 5.947992635
Ga 1.2823292175000005 2.634201735 17.784950185
Al 0.0 0.0 0.0
Ga -0.128960895 -0.06231616 11.83695755
Al 4.5759596600000005 2.81328644 0.063841605
Al 4.446998765000001 2.75097028 11.900799155
Al 3.1001891 0.085610465 0.034327745
Ga 2.971228205 0.023294305 11.871285295
Ga 1.4757705600000002 2.727675975 0.02951386
Ga 1.346809665 2.665359815 11.86647141
Al -0.0817845954839998 1.7741557969505 2.9674718891675
Al -0.2107454904839998 1.7118396369505 14.804429439167501
Al -1.7062031354840002 4.4162213069505 2.9626580041675
Ga -1.835164030484 4.3539051469505 14.799615554167497
Al 3.0184045045159995 1.8597662619505 3.0017996341675
Ga 2.8894436095159994 1.7974501019505 14.838757184167498
Ga 1.3939859645159995 4.5018317719505 2.9969857491675
Ga 1.2650250695159997 4.4395156119505 14.833943299167501
Al 1.428594260484 0.8912040180495 8.898999520832499
Ga 1.299633365484 0.8288878580494999 20.735957070832495
Al -0.1958242795159997 3.5332695280495003 8.8941856358325
Ga -0.3247851745159997 3.4709533680495004 20.731143185832497
Al 4.528783360484001 0.9768144830495 8.9333272658325
Al 4.399822465484001 0.9144983230495 20.7702848158325
Ga 2.9043648204840005 3.6188799930495 8.928513380832497
Al 2.7754039254840004 3.5565638330495 20.765470930832496
O -0.1029212861744998 1.7639421783265 4.907549231612499
O -0.2318821811744998 1.7016260183265 16.744506781612497
O -1.7273398261745003 4.4060076883265005 4.902735346612499
O -1.8563007211745 4.3436915283265005 16.7396928966125
O 2.9972678138255 1.8495526433265 4.9418769766125
O 2.8683069188255 1.7872364833265 16.7788345266125
O 1.3728492738254994 4.491618153326501 4.9370630916125
O 1.2438883788254995 4.429301993326501 16.7740206416125
O 1.4497309511745 0.9014176366735 6.958922178387499
O 1.3207700561745 0.8391014766735 18.7958797283875
O -0.1746875888254997 3.5434831466735 6.954108293387498
O -0.3036484838254997 3.4811669866735 18.7910658433875
O 4.5499200511745 0.9870281016735 6.993249923387499
O 4.420959156174501 0.9247119416735 18.830207473387496
O 2.9255015111745006 3.6290936116735 6.988436038387499
O 2.796540616174501 3.5667774516735 18.825393588387495
O 1.4074575697935 0.8809903994255 10.839076863277501
O 1.2784966747935 0.8186742394255 22.6760344132775
O -0.2169609702064997 3.5230559094255005 10.8342629782775
O -0.3459218652064997 3.4607397494255 22.671220528277498
O 4.507646669793501 0.9666008644255 10.8734046082775
O 4.3786857747935 0.9042847044255 22.710362158277498
O 2.8832281297935003 3.6086663744255 10.868590723277501
O 2.7542672347935 3.5463502144255 22.705548273277497
O -0.0606479047934998 1.7843694155745 1.0273945467225
O -0.1896087997934998 1.7220532555744998 12.864352096722499
O -1.6850664447935002 4.4264349255745 1.0225806617225
O -1.8140273397935005 4.3641187655745 12.8595382117225
O 3.0395411952065 1.8699798805745 1.0617222917225
O 2.9105803002065 1.8076637205745 12.8986798417225
O 1.4151226552064995 4.5120453905745 1.0569084067225
O 1.2861617602064994 4.4497292305745 12.893865956722498
O -0.03224022375 -0.01557904 2.9592393875
O -0.16120111875 -0.0778952 14.7961969375
O 4.543719436250001 2.7977074 3.0230809925
O 4.41475854125 2.73539124 14.8600385425
O 3.06794887625 0.070031425 2.9935671325
O 2.93898798125 0.007715265 14.830524682499997
O 1.4435303362500005 2.712096935 2.9887532475
O 1.3145694412500002 2.649780775 14.8257107975
O -0.09672067125 -0.04673712 8.877718162499999
O -0.22568156625 -0.10905328 20.7146757125
O 4.479238988750001 2.76654932 8.941559767499998
O 4.350278093750001 2.70423316 20.7785173175
O 3.00346842875 0.038873345 8.912045907499998
O 2.87450753375 -0.023442815 20.7490034575
O 1.3790498887500002 2.680938855 8.9072320225
O 1.2500889937500002 2.618622695 20.7441895725
