60   
   
Al -0.0014160729 0.002195967 1.9545855203
In 4.9795975721 0.024627017 1.9572209753
Al -0.0062990829 0.009768267 8.6945355903
Al 4.9747145621 0.032199317 8.697171045299998
Al -0.0083499471 0.012948633 11.5253146197
In 4.9726636979 0.035379683 11.5279500747
Al -0.0034669371 0.005376333 4.7853645497
Al 4.9775467079 0.027807383 4.7880000047
Al 2.47937172964305 1.45624709294742 6.44771148050288
Ga 7.4603853746430495 1.47867814294742 6.45034693550288
Al 2.47448871964305 1.46381939294742 13.18766155050288
Al 7.455502364643049 1.48625044294742 13.19029700550288
Al 2.48220387544305 1.45185515894742 2.53854043990288
Ga 7.46321752044305 1.47428620894742 2.54117589490288
Al 2.4773208654430494 1.45942745894742 9.278490509902879
Al 7.458334510443049 1.48185850894742 9.28112596490288
Ga -0.0208466704430501 2.88787153105258 10.93821546509712
In 4.960166974556949 2.91030258105258 10.94085092009712
Al -0.0159636604430501 2.88029923105258 4.1982653950971205
Al 4.9650499845569485 2.90273028105258 4.2009008500971206
Ga -0.0180145246430501 2.88347959705258 7.02904442449712
In 4.962999120356949 2.90591064705258 7.03167987949712
Al -0.0131315146430501 2.87590729705258 0.28909435449712
Al 4.96788213035695 2.89833834705258 0.29172980949712
O 1.506805629435 0.01058275815 3.370773577865
O 6.487819274434999 0.03301380815 3.373409032865
O 1.7199313828249998 3.01801986673 3.367783503205
O 6.700945027825 3.04045091673 3.370418958205
O 9.19908898774 1.35220001512 3.37349469893
O 4.21807534274 1.32976896512 3.37085924393
O 0.7414258221750001 1.3217068232699998 10.108972401795
O 5.722439467175 1.3441378732699998 10.111607856795
O -1.75671813774 3.00995772488 10.10589666107
O 3.22429550726 3.03238877488 10.10853211607
O 3.464441995565 0.02699289185 10.111762017135002
O 8.445455640565 0.04942394185 10.114397472135002
O 3.9875934319780497 1.46463388409742 7.86389953806788
O 8.96860707697805 1.48706493409742 7.86653499306788
O 1.72959596036805 0.14748890267742 7.86405369840788
O 6.71060960536805 0.16991995267742 7.866689153407878
O 1.7178495002830498 2.76138904106742 7.86134974913288
O 6.69886314528305 2.78382009106742 7.86398520413288
O 3.23197964471805 2.76061334921742 1.12219822199788
O 8.21299328971805 2.7830443992174203 1.12483367699788
O 3.243726104803049 0.14671321082742 1.12490217127288
O 8.224739749803051 0.16914426082742 1.12753762627288
O 0.97398217310805 1.44346836779742 1.12235238233788
O 5.95499581810805 1.46589941779742 1.12498783733788
O 1.4873750318919494 2.89625832220258 12.35440352266212
O 6.468388676891949 2.91868937220258 12.35703897766212
O -0.7706224397180501 1.57911334078258 12.35455768300212
O 4.21039120528195 1.6015443907825802 12.35719313800212
O -0.78236889980305 4.19301347917258 12.35185373372712
O 4.19864474519695 4.21544452917258 12.35448918872712
O 0.7317612446319496 4.19223778732258 5.61270220659212
O 5.712774889631949 4.214668837322581 5.61533766159212
O 0.7435077047169499 1.57833764893258 5.61540615586712
O 5.72452134971695 1.60076869893258 5.61804161086712
O -1.52623622697805 2.87509280590258 5.61285636693212
O 3.4547774180219495 2.89752385590258 5.61549182193212
