80   
   
Al 7.133615784999999 2.37616634 7.1137959625
Al 2.376078375 7.11718424 7.130050097500001
Al 7.116551069999999 7.1326512950000005 2.3715079225
Al 7.12553367 7.125429375 7.120865992500001
In 2.367095775 7.12440616 2.3806920275000003
Al 7.1246331849999995 2.3833882600000003 2.3644378925
In 2.38416049 2.367921205 7.1229800675
Al 2.37517789 2.375143125 2.3736219975000004
In 7.12563301132 4.43145893112 4.742171180460001
Ga 2.35911300132 9.17969875112 0.00906724546
In 7.115551243679999 5.08458062388 -0.00622536546
In 4.7457039057 7.12540885806 4.4278226612400005
In 0.0133133257 2.36067876806 9.17929480624
Ga -0.0025297557 7.1161815419400005 5.082919463760001
Al 4.43188411994 4.74611462082 7.122547549140001
Al 9.18043892994 0.01231864082 2.35693534414
Al 5.08589215506 -0.00202707582 7.1142284808600005
Al 2.37507854868 5.06911356888 4.752316809540001
Al 7.12363335868 0.3353175888800001 -0.01329539546
In 2.36719511632 4.43043571612 0.00199721546
Al 4.755007654299999 2.3751636419400004 5.066665328760001
In -0.0115123557 7.123403461940001 0.33356139376
Al 0.0043307257 2.36790068806 4.429936736240001
Ga 5.06882744006 4.75445787918 2.37194044086
Al 0.33643686006 -0.01027221082 7.123412585860001
In 4.43098363494 0.00407350582 2.36611944914
Ga 2.38316066368 0.3198505338800001 4.74524677954
Al 4.7460250543 2.38238556194 0.31730725876
In 0.31937214506 4.746212744180001 2.38112454586
Ga 7.117550896319999 9.180721966120002 4.74924121046
In 4.7546865057 7.118186938060001 9.17718073124
Al 9.181339414939998 4.75435975582 7.113363444140001
O 5.89478952307 3.71467250173 6.225298261100001
O 3.61034632407 8.457262430010001 8.022535295820001
O 8.351999874329998 5.796860575190001 1.47424698958
O 5.89464317853 5.78263574307 8.0141394285
O 6.22828791764 5.89425623908 3.710715302180001
O 8.02694512376 3.61048823304 8.4532265343
O 1.47854633644 8.35247912516 5.794295941300001
O 8.01799952216 5.89420765272 5.77798219722
O 3.71460872981 6.228525616690001 5.89129791605
O 8.45671350157 8.02596017445 3.605080268730001
O 5.798124305429999 1.47910206215 8.349889812670002
O 5.78233236319 8.017843396710001 5.889951977550001
O 3.60592203693 5.785899998270001 3.2691897289
O 5.89036523593 1.04331006999 1.47195269418
O 1.14871168567 3.70371192481 8.02024100042
O 3.60606838147 3.71793675693 1.4803485615
O 3.2724236423599997 3.60631626092 5.78377268782
O 1.4737664362399998 5.89008426696 1.0412614557000002
O 8.02216522356 1.1480933748400002 3.7001920487
O 1.4827120378399998 3.60636484728 3.716505792780001
O 5.786102830189999 3.27204688331 3.603190073950001
O 1.04399805843 1.47461232555 5.8894077212700005
O 3.70258725457 8.02147043785 1.14459817733
O 3.71837919681 1.48272910329 3.604536012450001
O 1.12826951307 8.462912321730002 1.4921943261
O 8.358901134069999 3.723466450010001 3.25692309082
O 3.61960929433 1.0321304851900002 6.225719134580001
O 1.14428739853 1.03234949307 3.2668954335
O 1.4958973376399998 1.12952614908 8.462187447180002
O 3.2604251137599998 8.35872805304 3.7201225993000007
O 6.227101146440001 3.61868314516 1.0286837363
O 3.2676437421599998 1.14392140272 1.03073820222
O 8.463163539810001 1.49472963669 1.12568571105
O 3.72432292157 3.26123008445 8.35655241373
O 1.0316042954299998 6.22734188215 3.61678587767
O 1.03197658319 3.26755714671 1.1427079825500002
O 8.37244204693 1.03766017827 8.002293663899998
O 1.1418104259300002 5.77710604999 6.237564899180001
O 5.88110226567 8.468442014810002 3.26876885542
O 8.35642416147 8.468223006929998 6.227592556500001
O 8.00481422236 8.37104635092 1.03230054282
O 6.24028644624 1.14184444696 5.774365390700001
O 3.2736104135599997 5.88188935484 8.465804253700004
O 6.23306781784 8.356651097280002 8.463749787780001
O 1.0375480201899998 8.00584286331 8.368802278950001
O 5.77638863843 6.23934241555 1.13793557627
O 8.46910726457 3.27323061785 5.877702112330001
O 8.468734976809998 6.23301535329 8.351780007450001
