80   
   
In 10.861974676545 7.36518e-06 1.1840911319499998
Al 10.861965761545001 3.1057559451800003 1.18409874695
Ga 23.147750681545 1.643518e-05 1.16592878195
In 23.147741766545003 3.1057650151800003 1.1659363969499998
Ga -0.0678850715450001 -2.58518e-06 4.65433533805
Al -0.067893986545 3.10574599482 4.6543429530500005
Al 12.217890933455 6.48482e-06 4.63617298805
Ga 12.217882018454999 3.10575506482 4.63618060305
In 4.719082216545 1.5528771201800002 1.19317611445
Ga 4.719073301545 4.65862570018 1.1931837294499998
Ga 17.004858221545003 1.5528861901800002 1.1750137644499998
Ga 17.004849306545005 4.65863477018 1.17502137945
Ga 6.074998473455 1.5528762398200002 4.64525797055
In 6.074989558455001 4.658624819820001 4.64526558555
In 18.360774478455003 1.5528853098200002 4.6270956205500005
Ga 18.360765563455 4.658633889820001 4.62710323555
Ga 9.309036292305002 1.5528789749300005 4.00234920167
Al 9.309027377305002 4.65862755493 4.00235681667
Al 21.594812297304998 1.5528880449300002 3.98418685167
Ga 21.594803382305 4.65863662493 3.98419446667
Ga 1.485044397695 1.5528743850700002 1.83608488333
Al 1.485035482695 4.65862296507 1.83609249833
In 13.770820402695 1.55288345507 1.81792253333
Al 13.770811487695 4.65863203507 1.81793014833
In 3.1661527473050004 1.4993e-07 4.01142656917
Al 3.166143832305 3.10574872993 4.0114341841700005
Ga 15.451928752304998 9.21993e-06 3.99326421917
Ga 15.451919837305002 3.10575779993 3.99327183417
Ga 7.627936857695 4.63007e-06 1.82699990083
Ga 7.627927942695 3.10575321007 1.82700751583
Al 19.913712862695 1.370007e-05 1.80883755083
Ga 19.913703947695 3.10576228007 1.80884516583
O 9.508469799335 5.62616e-06 2.54430905089
O 9.508460884335 3.10575420616 2.54431666589
O 21.794245804335002 1.469616e-05 2.52614670089
O 21.794236889335004 3.1057632761600003 2.52615431589
O 1.285619805665 -8.4616e-07 3.29411741911
O 1.285610890665 3.1057477338400004 3.2941250341099995
O 13.571395810665 8.22384e-06 3.27595506911
O 13.571386895665 3.1057568038400003 3.27596268411
O 3.365577339335 1.5528753811600002 2.55339403339
O 3.3655684243350006 4.658623961160001 2.55340164839
O 15.651353344335002 1.5528844511600002 2.53523168339
O 15.651344429335001 4.658633031160001 2.53523929839
O 7.428503350665002 1.55287797884 3.28504005161
O 7.428494435665002 4.65862655884 3.28504766661
O 19.714279355665 1.5528870488400002 3.2668777016099995
O 19.714270440664997 4.65863562884 3.26688531661
O 8.931022068175 3.75535e-06 5.19719848755
O 8.931013153175 3.10575233535 5.19720610255
O 21.216798073175003 1.282535e-05 5.17903613755
O 21.216789158175 3.10576140535 5.17904375255
O 1.863067536825 1.02465e-06 0.64122798245
O 1.863058621825 3.10574960465 0.64123559745
O 14.148843541825 1.009465e-05 0.62306563245
O 14.148834626825002 3.10575867465 0.62307324745
O 2.788129608175 1.5528735103500002 5.20628347005
O 2.7881206931750007 4.658622090350001 5.20629108505
O 15.073905613175002 1.5528825803500002 5.18812112005
O 15.073896698175002 4.658631160350001 5.18812873505
O 8.005951081825001 1.55287984965 0.63215061495
O 8.005942166825001 4.65862842965 0.6321582299499999
O 20.291727086825 1.5528889196500002 0.61398826495
O 20.291718171825003 4.65863749965 0.6139958799499999
O -1.05918434868 1.55287113881 4.35137665136
O -1.05919326368 4.658619718810001 4.35138426636
O 11.226591656320002 1.5528802088100002 4.33321430136
O 11.22658274132 4.658628788810001 4.33322191636
O 11.85326503868 1.5528822211900002 1.48705743364
O 11.85325612368 4.65863080119 1.48706504864
O 24.13904104368 1.55289129119 1.46889508364
O 24.13903212868 4.658639871190001 1.46890269864
O 5.08370811132 1.38381e-06 4.34229166886
O 5.08369919632 3.10574996381 4.34229928386
O 17.369484116319995 1.045381e-05 4.32412931886
O 17.36947520132 3.10575903381 4.32413693386
O 5.710381493680001 3.39619e-06 1.49613480114
O 5.71037257868 3.10575197619 1.49614241614
O 17.996157498679995 1.246619e-05 1.47797245114
O 17.99614858368 3.10576104619 1.47798006614
