40   
   
In 1.00763238758 6.237582295570001 -0.03623608071
In 4.611763482420001 3.2597242344300006 5.00883996071
In 1.82257009642 1.51961712167 5.03433997643
In 3.7968257735800006 7.97768940833 -0.06173609643
In 3.86899202285 1.52078935264 7.92210977385
In 1.7863306219500004 8.00452561068 2.85080576707
In 4.56983701545 6.23625132414 2.84224401095
In 1.08548562935 3.28906363918 7.93067152997
Ga 1.79539737439 8.10041613845 6.993621752219999
Ga 3.84865903441 1.41611569247 1.9603807243
In 1.0653985649100002 3.33610376925 1.96821001514
Ga 4.57865784389 6.180428061670001 6.985792461379999
In 0.99920744466 0.33166364592 10.08785637558
In 4.68265344494 9.21434047372 4.96960993926
In 1.88952527494 5.04681271712 5.00682939946
In 3.7923356146600007 4.499191402520001 10.05063691538
O 4.68596934693 6.379477704600001 8.96489049885
O 0.98262242027 3.15618183688 3.95030042903
O 3.76649769977 1.6154782357000002 3.94063997499
O 1.90209406743 7.92018130578 8.97455095289
O 2.965191091050001 0.11119962648 6.33774814285
O 2.67035305055 9.39869605996 1.24196446279
O 5.449309850050001 4.823716653980001 1.24695331435
O 0.18623429155 4.68617903246 6.33275929129
O 5.46946077179 7.93974948559 6.37561373748
O 0.16720999341 1.57102451409 1.3859901746
O 2.9561881959100003 3.1783820603900006 1.361131066
O 2.68048256929 6.33239193929 6.40047284608
O 0.10387556875 7.84747270556 1.18434218307
O 5.53066712965 1.661642258 6.23368926129
O 2.74666888815 3.12648896406 6.24371594797
O 2.8878738102500003 6.382625999500001 1.17431549639
O 2.0685717734199995 1.65089338223 8.73088105855
O 3.59664012298 7.882131219529998 3.63863595001
O 0.8078156229800001 6.369594792130001 3.66303726781
O 4.85739627342 3.16342980963 8.70647974075
O 4.71514926497 0.04570410769 9.06596735904
O 0.95431876503 9.49063856631 3.99069458496
O 3.73302964053 4.76394537009 3.9964159018
O 1.93643838947 4.77239730391 9.0602460422
