80   
   
Ga -0.0067947875 -0.04224767 6.1836643375
Ga -0.0203843625 -0.12674301 18.5509930125
In 5.0875002725 2.8362209750000003 6.2090696125
In 5.0739106975 2.751725635 18.5763982875
Ga 3.3709289825 -0.073468925 6.1873294475
In 3.3573394075 -0.157964265 18.5546581225
In 1.7097765024999998 2.86744223 6.2054045025
In 1.6961869275 2.78294689 18.5727331775
In 0.0 0.0 0.0
In -0.013589575 -0.08449534 12.367328675
In 5.09429506 2.8784686450000003 0.025405275
In 5.080705484999999 2.793973305 12.39273395
In 3.37772377 -0.031221255 0.00366511
Al 3.364134195 -0.115716595 12.370993785
In 1.71657129 2.9096899 0.021740165
Ga 1.702981715 2.82519456 12.38906884
Ga 0.015073695623 1.9288814966315 3.105102581576
Ga 0.001484120623 1.8443861566315 15.472431256576
In -1.646078784377 4.8697926516315 3.123177636576
In -1.659668359377 4.7852973116315 15.490506311575997
In 3.392797465623 1.8976602416315 3.108767691576
Ga 3.379207890623 1.8131649016315 15.476096366576
Ga 1.7316449856229996 4.8385713966315 3.126842746576
Ga 1.7180554106229995 4.7540760566315 15.494171421575997
Ga 1.6879080193769995 0.8963130633685 9.283966258424002
Ga 1.6743184443769996 0.8118177233685 21.651294933424
Ga 0.0267555393769999 3.8372242183685 9.302041313424
Ga 0.0131659643769999 3.752728878368501 21.669369988424
In 5.065631789377001 0.8650918083685001 9.287631368424002
In 5.052042214377001 0.7805964683685 21.654960043424
In 3.4044793093770007 3.8060029633685 9.305706423424
Al 3.3908897343770006 3.7215076233685 21.673035098424
O 0.0128463642805 1.9150327104055 5.132107751408499
O -0.0007432107195 1.8305373704055 17.499436426408497
O -1.6483061157194998 4.8559438654055 5.1501828064085
O -1.6618956907195 4.7714485254055 17.517511481408494
O 3.3905701342805 1.8838114554055 5.135772861408499
O 3.3769805592805 1.7993161154055 17.503101536408497
O 1.7294176542804998 4.8247226104055 5.1538479164085
O 1.7158280792804996 4.7402272704055 17.521176591408494
O 1.6901353507194996 0.9101618495945 7.256961088591499
O 1.6765457757194997 0.8256665095945 19.624289763591495
O 0.0289828707194999 3.8510730045945 7.275036143591498
O 0.0153932957194999 3.7665776645945 19.642364818591496
O 5.0678591207195005 0.8789405945945 7.260626198591499
O 5.0542695457195 0.7944452545945001 19.627954873591495
O 3.406706640719501 3.8198517495945 7.278701253591498
O 3.3931170657195007 3.7353564095945 19.646029928591496
O 1.6856806880344997 0.8824642771425 11.310971428256499
O 1.6720911130344995 0.7979689371425001 23.678300103256497
O 0.0245282080344999 3.823375432142501 11.3290464832565
O 0.0109386330344999 3.7388800921425 23.696375158256497
O 5.0634044580345 0.8512430221425 11.314636538256499
O 5.049814883034501 0.7667476821425001 23.681965213256497
O 3.4022519780345006 3.7921541771425 11.3327115932565
O 3.3886624030345005 3.7076588371425 23.700040268256497
O 0.0173010269655 1.9427302828575 1.0780974117434998
O 0.0037114519655 1.8582349428575 13.4454260867435
O -1.6438514530345 4.8836414378575 1.0961724667435
O -1.6574410280345 4.7991460978575 13.463501141743501
O 3.3950247969655 1.9115090278575 1.0817625217434998
O 3.3814352219655 1.8270136878575 13.4490911967435
O 1.7338723169654997 4.8524201828575 1.0998375767434998
O 1.7202827419654996 4.7679248428575 13.467166251743501
O -0.00339739375 -0.021123835 3.09183216875
O -0.01698696875 -0.105619175 15.459160843749997
O 5.090897666249999 2.8573448100000003 3.11723744375
O 5.077308091249999 2.77284947 15.48456611875
O 3.37432637625 -0.05234509 3.09549727875
O 3.36073680125 -0.13684043 15.462825953749997
O 1.7131738962499998 2.888566065 3.11357233375
O 1.69958432125 2.804070725 15.48090100875
O -0.01019218125 -0.063371505 9.27549650625
O -0.02378175625 -0.147866845 21.64282518125
O 5.08410287875 2.81509714 9.30090178125
O 5.07051330375 2.7306018000000005 21.66823045625
O 3.36753158875 -0.09459276 9.27916161625
O 3.35394201375 -0.1790881 21.64649029125
O 1.7063791087499998 2.846318395 9.29723667125
O 1.69278953375 2.761823055 21.66456534625
