80   
   
In 1.7792900218099998 8.032047713150002 6.94309139198
In 7.30275208181 8.022010868150002 6.91047284698
Ga 3.81442179671 1.4033722216700002 1.94674390686
In 9.33788385671 1.39333537667 1.9141253618600005
In 1.0560882713700002 3.30815082693 1.95441386156
In 6.57955033137 3.2981139819300003 1.92179531656
In 4.537623547150001 6.12726910789 6.93542143728
In 10.061085607150002 6.11723226289 6.90280289228
In 0.99976682788 6.186531128785001 -0.033980655755
In 6.52322888788 6.176494283785001 -0.066599200755
In 4.57039735212 3.2309501712150004 4.972699890755
In 10.09385941212 3.2209133262150003 4.940081345755
In 1.8055715654 1.5054939717950002 4.996878640855
In 7.3290336254 1.495457126795 4.964260095855
In 3.8243581946000007 7.957516858205 9.970053954145
In 9.3478202546 7.947480013205 9.937435409145
Ga 0.9881520204 0.3259404119100001 10.01142216408
In 6.5116140804 0.31590356691 9.97880361908
Ga 4.64165820844 9.13697935903 4.9354540042
Al 10.16512026844 9.12694251403 4.9028354592
In 1.87252667324 5.003906294330001 4.9705815927
In 7.3959887332399985 4.993869449330001 4.9379630477
In 3.7572835556 4.45901347661 9.97629457558
Ga 9.2807456156 4.44897663161 9.94367603058
In 3.83324765737 1.505502781945 7.863145493695
Al 9.35670971737 1.495465936945 7.830526948695
Ga 1.77122196555 7.938112468275 2.831768209945
In 7.294684025549999 7.928075623275002 2.799149664945
In 4.52982460017 6.183809917095001 2.823413952845
In 10.05328666017 6.173773072095001 2.790795407845
Ga 1.07464502275 3.259805333125 7.871499750795
In 6.59810708275 3.2497684881250004 7.838881205795
O 4.643572842449999 6.324117337005001 8.899541362575
O 10.16703490245 6.314080492005001 8.866922817575
O 0.97356708343 3.1291501735750007 3.921353573385
O 6.49702914343 3.119113328575001 3.888735028385
O 3.73257338197 1.6005617035150002 3.911972862685
O 9.25603544197 1.5905248585150005 3.879354317685
O 1.88456654391 7.852705807065 8.908922073275
O 7.408028603909998 7.842668962065 8.876303528275
O 2.93756150529 0.108011511165 6.290236547215001
O 8.46102356529 0.097974666165 6.2576180022150005
O 2.64802219435 9.321216407575 1.235761734665
O 8.171484254350004 9.311179562575001 1.203143189665
O 5.40164630729 4.783106855915 1.240067071965
O 10.925108367290001 4.773070010915001 1.2074485269650002
O 0.18393739235 4.646121062825 6.285931209915001
O 5.70739945235 4.636084217825 6.253312664915001
O 0.10399315199 7.783089565715 1.177554658085
O 5.627455211989999 7.773052720715 1.144936113085
O 5.48063429837 1.645409880545 6.187992210035
O 11.00409635837 1.635373035545 6.155373665035
O 2.72149344519 3.0987603235650005 6.197715071935001
O 8.244955505190001 3.0887234785650004 6.165096526935001
O 2.86313400517 6.329739122695001 1.167831796185
O 8.386596065169998 6.319702277695001 1.135213251185
O 5.42097970291 7.8722610991 6.33058286644
O 10.94444176291 7.8622242541 6.29796432144
O 0.16567977717 1.5577863511800003 1.37592325592
O 5.689141837170001 1.5477495061800002 1.3433047109200005
O 2.93027009327 3.15157600328 1.3523432704200002
O 8.45373215327 3.1415391582800005 1.3197247254200002
O 2.6563893868100004 6.278471447 6.354162851940001
O 8.17985144681 6.268434602 6.321544306940001
O 2.04858608204 1.634613346535 8.665386762015
O 7.572048142039998 1.624576501535 8.632768217015
O 3.56532650252 7.816195569424998 3.613984652505
O 9.088788562519996 7.806158724425 3.581366107505
O 0.8009043797200002 6.316453451125001 3.637136949005
O 6.32436643972 6.306416606125 3.604518404005
O 4.813008204839999 3.1343554648350005 8.642234465515001
O 10.33647026484 3.1243186198350004 8.609615920515001
O 4.67142012349 0.04199052796 8.99808015148
O 10.194882183490002 0.03195368296 8.96546160648
O 0.94655652051 9.411914396040002 3.96320977152
O 6.470018580509999 9.401877551040002 3.93059122652
O 3.69991152417 4.7233287903 3.968199411220001
O 9.22337358417 4.7132919453 3.935580866220001
O 1.91806511983 4.7305761337000005 8.99309051178
O 7.441527179830001 4.7205392887 8.96047196678
