80   
   
Ga -0.0476239025 -0.04064968 6.0065028725
In -0.1428717075 -0.12194904 18.0195086175
Al 4.6856753675 2.83323018 6.0620432325
Ga 4.5904275625 2.75193082 18.0750489775
In 3.1485961625 0.029920315 6.0320094625
Al 3.0533483575 -0.051379045 18.0450152075
Al 1.4894553025 2.762660185 6.0365366425
Al 1.3942074974999998 2.681360825 18.0495423875
Ga 0.0 0.0 0.0
Al -0.095247805 -0.08129936 12.013005745
In 4.73329927 2.87387986 0.05554036
Al 4.638051465 2.7925805 12.068546105
In 3.196220065 0.070569995 0.02550659
Al 3.10097226 -0.010729365 12.038512335
Al 1.537079205 2.803309865 0.03003377
Ga 1.4418314 2.722010505 12.043039514999998
In -0.0644951008615001 1.8248405366755 3.014770600885
Al -0.1597429058615001 1.7435411766755 15.027776345884998
Al -1.7236359608615 4.557580406675501 3.019297780885
Al -1.8188837658615 4.476281046675501 15.032303525884998
In 3.1317249641384994 1.8954105316755 3.040277190885
Al 3.0364771591385 1.8141111716755 15.053282935884999
Al 1.4725841041384995 4.628150401675501 3.044804370885
Ga 1.3773362991384994 4.546851041675501 15.057810115884998
Al 1.5063265008615 0.8971699683244999 9.028268914115
Ga 1.4110786958615 0.8158706083245 21.041274659115
Ga -0.1528143591384999 3.6299098383245 9.032796094115
Ga -0.2480621641384999 3.5486104783245 21.045801839115
Ga 4.7025465658615 0.9677399633245 9.053775504114999
Ga 4.607298760861499 0.8864406033244999 21.066781249115003
In 3.0434057058615 3.7004798333245 9.058302684114999
Al 2.9481579008615 3.6191804733245 21.071308429115003
O -0.0801062161010001 1.8115155715715 4.9837022424905
O -0.1753540211010001 1.7302162115715 16.9967079874905
O -1.739247076101 4.544255441571501 4.9882294224905
O -1.834494881101 4.462956081571501 17.0012351674905
O 3.1161138488989994 1.8820855665715 5.0092088324905
O 3.020866043899 1.8007862065715 17.022214577490498
O 1.4569729888989995 4.6148254365715005 5.0137360124905
O 1.3617251838989994 4.5335260765715 17.0267417574905
O 1.521937616101 0.9104949334285 7.059337272509499
O 1.426689811101 0.8291955734284999 19.072343017509496
O -0.1372032438989999 3.6432348034285 7.063864452509498
O -0.2324510488989999 3.5619354434285 19.076870197509496
O 4.718157681100999 0.9810649284285 7.084843862509499
O 4.622909876101 0.8997655684284999 19.0978496075095
O 3.059016821101 3.7138047984285 7.089371042509498
O 2.963769016101 3.6325054384285 19.1023767875095
O 1.490715385622 0.8838450032205 10.997200555720498
O 1.395467580622 0.8025456432204999 23.010206300720498
O -0.1684254743779999 3.6165848732205 11.001727735720499
O -0.2636732793779999 3.5352855132205 23.014733480720498
O 4.686935450621999 0.9544149982205 11.0227071457205
O 4.591687645622 0.8731156382204999 23.035712890720497
O 3.027794590622 3.6871548682205 11.0272343257205
O 2.932546785622 3.6058555082205 23.040240070720497
O -0.0488839856220001 1.8381655017795 1.0458389592795
O -0.1441317906220001 1.7568661417795 13.058844704279501
O -1.708024845622 4.570905371779501 1.0503661392794998
O -1.803272650622 4.489606011779501 13.063371884279501
O 3.1473360793779994 1.9087354967795 1.0713455492795
O 3.052088274378 1.8274361367795 13.0843512942795
O 1.4881952193779997 4.641475366779501 1.0758727292794998
O 1.3929474143779994 4.560176006779501 13.0888784742795
O -0.02381195125 -0.02032484 3.00325143625
O -0.11905975625 -0.1016242 15.01625718125
O 4.70948731875 2.8535550200000004 3.05879179625
O 4.61423951375 2.7722556600000003 15.07179754125
O 3.17240811375 0.050245155 3.02875802625
O 3.07716030875 -0.031054205 15.041763771249997
O 1.51326725375 2.7829850250000003 3.03328520625
O 1.41801944875 2.7016856650000003 15.046290951249997
O -0.07143585375 -0.06097452 9.00975430875
O -0.16668365875 -0.14227388 21.02276005375
O 4.66186341625 2.8129053400000004 9.06529466875
O 4.56661561125 2.7316059800000003 21.07830041375
O 3.12478421125 0.009595475 9.03526089875
O 3.02953640625 -0.071703885 21.04826664375
O 1.46564335125 2.7423353450000003 9.03978807875
O 1.37039554625 2.6610359850000003 21.05279382375
