80   
   
Al 1.6025340972399995 7.29258273301 6.39704664227
Ga 6.59407622224 7.27498353301 6.38158595727
Al 3.4442029787399995 1.26645737439 1.79972049295
Al 8.435745103739999 1.24885817439 1.78425980795
Al 0.95449166374 3.00590837881 1.80539051221
Al 5.94603378874 2.98830917881 1.78992982721
Al 4.09224541224 5.55313172859 6.391376623009999
Al 9.08378753724 5.53553252859 6.37591593801
Al 0.913225217875 5.634318179380001 -0.009478812575
Ga 5.904767342875 5.616718979380001 -0.024939497575
Al 4.122407492125 2.92072988062 4.582491572575
In 9.113949617125002 2.9031306806200003 4.567030887575
Al 1.6211166596250002 1.35309453798 4.592098645155
Al 6.612658784624999 1.33549533798 4.576637960155
Al 3.442699720375 7.212085622019998 9.178260244845
Al 8.434241845375 7.19448642202 9.162799559845
Ga 0.86763452583 0.2641927386 9.18524540019
In 5.85917665083 0.2465935386 9.16978471519
Al 4.196125486829999 8.3009671572 4.56671879755
Al 9.18766761183 8.283367957200001 4.55125811255
Al 1.68715497433 4.5400310248 4.57893697285
Al 6.678697099329999 4.522431824800001 4.56347628785
Al 3.37660503833 4.025128871 9.17302722489
Al 8.36814716333 4.007529671 9.15756653989
Al 3.446096707665 1.34102876067 7.226119494745
Al 8.437638832664998 1.32342956067 7.210658809745
Ga 1.605713428915 7.2198351247299986 2.626169943875
Al 6.597255553915 7.202235924729999 2.610709258875
Al 4.095904723915 5.61746541967 2.620336730695
Al 9.087446848915 5.59986621967 2.604876045695
In 0.955905412665 2.94339846573 7.231952707925
Al 5.947447537665 2.9257992657300003 7.216492022925
O 4.183225602685 5.72617005799 8.193589640444998
O 9.174767727684996 5.70857085799 8.178128955445
O 0.8745594719349999 2.83684183261 3.608537177735
O 5.866101596935 2.81924263261 3.593076492735
O 3.3654707369350003 1.44009407659 3.602459173675
O 8.357012861934997 1.4224948765900003 3.586998488675
O 1.692314337685 7.12291781401 8.199667644505
O 6.683856462684999 7.10531861401 8.184206959504998
O 2.638557132805 0.07424174179 5.776922059565
O 7.630099257804998 0.05664254179 5.761461374565
O 2.404346964055 8.48342040001 1.169006001975
O 7.395889089055 8.465821200010001 1.153545316975
O 4.885658629055 4.34504665679 1.166191876315
O 9.877200754055002 4.32744745679 1.150731191315
O 0.157245467805 4.21261548501 5.779736185225
O 5.148787592804999 4.19501628501 5.764275500225
O 0.103092322195 7.08635165677 1.1042118857149998
O 5.094634447194999 7.06875245677 1.088751200715
O 4.939360835944999 1.4711483714299998 5.694558637745
O 9.930902960945 1.45354917143 5.679097952745
O 2.4482095809449995 2.79935547777 5.700718238765
O 7.439751705944999 2.78175627777 5.685257553765
O 2.594243577195 5.758144550430001 1.0980522846949998
O 7.585785702194999 5.740545350430001 1.082591599695
O 4.894809083209999 7.14328816775 5.84436236242
O 9.886351208209998 7.12568896775 5.82890167742
O 0.14860231971 1.41455635185 1.26711792946
O 5.14014444471 1.39695715185 1.25165724446
O 2.64947316971 2.86224555755 1.25765365156
O 7.64101529471 2.8446463575500003 1.24219296656
O 2.39393823321 5.695598962050001 5.85382664032
O 7.38548035821 5.677999762050001 5.83836595532
O 1.831453552845 1.4589098931 7.957586505894999
O 6.822995677845 1.4413106931 7.942125820895
O 3.224809603595 7.1035548641 3.347883621265
O 8.216351728594999 7.0859556641 3.332422936265
O 0.724238741095 5.7415414705000005 3.357245902965
O 5.715780866095 5.7239422705 3.341785217965
O 4.332024415345 2.8209232867000003 7.948224224195
O 9.323566540344999 2.8033240867 7.932763539194998
O 4.198324518249999 0.00297354001 8.26467618472
O 9.18986664325 -0.01462565999 8.24921549972
O 0.85985512775 8.56018019999 3.66621347928
O 5.851397252749999 8.542580999989998 3.65075279428
O 3.34068681275 4.2847251574100005 3.66356254754
O 8.33222893775 4.26712595741 3.64810186254
O 1.71749283325 4.278428582589999 8.26732711646
O 6.70903495825 4.26082938259 8.25186643146
