40   
   
Ga -0.0569545124185252 3.463402533118289 14.123455087024832
Ga 1.5114432380812586 2.607829511564029 2.4685284040997746
Ga 3.0122147080812587 -0.0185750934359703 2.4711631590997745
Al -1.5133752069187416 2.621272756564029 2.4523540290997747
Al 3.004218569337267 1.7214654003176808 5.5435339838753945
Ga -0.0220565394187414 -0.0089807346859703 4.296230335349775
In -1.5308241481627338 4.357464364067681 7.365966405125395
Al -0.0300526781627338 1.7310597590676806 7.368601160125396
In 1.4939942968372666 4.344021119067681 7.382140780125393
Ga -0.0096904999185252 3.4826469643682887 4.917247330774831
In -0.0380489074185252 3.4711003056182888 10.440971984524833
Al 2.985312964337267 1.7137676278176808 9.226017086375393
Al 4.478088205081475 0.8274035693682892 12.30102266577483
In 2.977316735081475 3.4538081743682887 12.298387910774832
Al 1.4532697600814752 0.8408468143682892 12.28484829077483
In -0.0504149469187414 -0.0205273934359703 9.819954989099775
O 4.474337843937265 0.885643504417681 1.2778725065753942
O 3.0335972327372662 3.406991925217681 1.2753431417753942
O 1.570512136737266 0.898549019617681 1.2623451065753943
O -0.0689424398187414 -0.0280712104859703 13.428788429549774
O 0.0088369929814748 3.4901907814182893 1.308413890324831
O 1.5151936897372664 2.549589523717681 13.491678563675393
O 2.9559343009372663 0.028241102917681 13.494207928475396
O 4.419019396937266 2.5366840085176805 13.507205963675393
O 1.4320703671814752 2.6352784097182886 6.175310507224832
O -0.0086702440185246 5.156626830518289 6.172781142424832
O -1.4717553400185248 2.6481839249182886 6.159783107224831
O 3.0140494839372667 1.7254682420176808 3.6286427705753934
O -0.0318874540187414 -0.0129835763859703 6.211121548649775
O -1.4514513670185247 4.330015519018289 3.6591841543248314
O -0.0107107558185247 1.8086670982182893 3.6617135191248313
O 1.4523743401814757 4.317110003818289 3.674711554324831
O -1.6101970198187412 4.384913261914029 11.072748655549775
O -0.0493946910187413 1.6534524727140296 11.075488800749774
O 1.5356141629812594 4.370932287114028 11.089570005549774
O -0.0282179928185252 3.475103147318289 8.52608077122483
O 2.9754820497372667 1.7097647861176808 11.140908299675392
O 4.557461075981258 0.7999546712140297 8.594240562649777
O 2.9966587471812582 3.531415460414029 8.591500417449776
O 1.4116498931812589 0.8139356460140298 8.577419212649776
