80   
   
Ga 1.6326240117500004 7.36638116184 6.449161565939999
Ga 6.67253744175 7.342397416839998 6.429255200939999
Ga 3.48072347679 1.27562773132 1.81208630732
Al 8.52063690679 1.25164398632 1.79217994232
Al 0.96902913143 3.03561472622 1.8193112152
Al 6.0089425614300005 3.01163098122 1.7994048502
In 4.14431835711 5.60639416694 6.44193665806
Ga 9.18423178711 5.58241042194 6.42203029306
Al 0.92905855953 5.6896712192450005 -0.012450391315
Ga 5.968971989530001 5.665687474245 -0.032356756315
Ga 4.16995189547 2.946806055755 4.618109611315
Al 9.20986532547 2.922822310755 4.598203246315
Al 1.6424690615900002 1.3665647474549998 4.630547954855
Al 6.68238249159 1.3425810024549998 4.610641589855
Ga 3.49292980341 7.2839521675449985 9.253255055145
Al 8.532843233410002 7.259968422544999 9.233348690145
Ga 0.8842845624300001 0.2695995671999999 9.26511618759
Al 5.92419799243 0.2456158222 9.24520982259
Al 4.25104152575 8.38088926852 4.60013053483
Ga 9.29095495575 8.35690552352 4.58022416983
Ga 1.71308756995 4.58536701302 4.61602649373
Al 6.75300099995 4.56138326802 4.59612012873
Ga 3.4222385182300004 4.0651218227 9.24922022869
Ga 8.46215194823 4.0411380777 9.22931386369
Al 3.4874001209600007 1.353210599755 7.286142812035
Al 8.52731355096 1.329226854755 7.266236447035
Ga 1.63249728138 7.291325428604998 2.645170943425
In 6.67241071138 7.267341683604998 2.6252645784249995
Al 4.14484607186 5.669793492905001 2.637729934585
Al 9.18475950186 5.645809747905 2.617823569585
Al 0.97505133048 2.9747425354550003 7.293583820875
Ga 6.014964760480001 2.950758790455001 7.273677455875
O 4.237947070180001 5.781807036715 8.259844306494998
O 9.27786050018 5.757823291715 8.239937941495
O 0.88966467508 2.865705395325 3.638435932445
O 5.92957810508 2.841721650325 3.618529567445
O 3.4029951332400006 1.4518560484249998 3.630670772165
O 8.442908563239998 1.4278723034249998 3.610764407165
O 1.7246166120200002 7.195656383615 8.267609466774998
O 6.7645300420200005 7.171672638615 8.247703101775
O 2.6692109860200004 0.074120438235 5.825380045495
O 7.70912441602 0.050136693235 5.805473680495
O 2.43918767876 8.565979063884999 1.174040272325
O 7.479101108760002 8.541995318885 1.154133907325
O 4.93942923452 4.383028532985 1.170597131245
O 9.97934266452 4.359044787984999 1.150690766245
O 0.16896943026 4.257070969135 5.828823186575
O 5.20888286026 4.233087224135 5.808916821575
O 0.1138283312 7.157734912664999 1.1111870847449998
O 5.1537417612 7.133751167665 1.0912807197449998
O 4.993988119020001 1.4821399552149996 5.739782932435
O 10.03390154902 1.4581562102149996 5.719876567435
O 2.4803304383 2.826761772515 5.747656143195
O 7.5202438683 2.802778027515 5.727749778195
O 2.6274860119200003 5.813113095365001 1.103313873985
O 7.66739944192 5.789129350365001 1.083407508985
O 4.95616551424 7.2112684921799985 5.88882898239
O 9.99607894424 7.187284747179999 5.86892261739
O 0.15288814192 1.4290837234599998 1.27759792365
O 5.1928015719200005 1.4050999784599998 1.2576915586500002
O 2.67979833632 2.88817685496 1.2653486684500002
O 7.71971176632 2.86419310996 1.24544230345
O 2.42925531984 5.75217536068 5.90107823759
O 7.469168749839999 5.72819161568 5.88117187259
O 1.85787459069 1.474585200295 8.025390251675
O 6.89778802069 1.450601455295 8.005483886675
O 3.2677721804300006 7.172169091184999 3.371870222605
O 8.307685610430001 7.148185346185 3.351963857605
O 0.7412710142300001 5.799610371685 3.383984414705
O 5.78118444423 5.775626626685 3.364078049705
O 4.38437575689 2.847143919795 8.013276059575
O 9.42428918689 2.823160174795 7.993369694574999
O 4.2461580993000005 0.00123870638 8.33367418355
O 9.286071529300001 -0.02274503862 8.313767818549998
O 0.8819630837000001 8.646470280620001 3.69450006845
O 5.9218765137 8.62248653562 3.67459370345
O 3.3815501943400004 4.32506469052 3.69127302833
O 8.421463624339998 4.30108094552 3.67136666333
O 1.7465709886600005 4.32264429648 8.336901223669999
O 6.786484418660001 4.29866055148 8.31699485867
