80   
   
Ga 1.78691874431 8.053644240049998 6.958567414899999
Ga 7.32498191431 8.04241387505 6.9249062549
Ga 3.82514962275 1.40648063935 1.95058075124
Ga 9.363212792749998 1.39525027435 1.91691959124
Ga 1.05992679623 3.31688739031 1.95857761874
In 6.597989966229999 3.30565702531 1.92491645874
Ga 4.55214157083 6.14323748909 6.9505705474
Ga 10.09020474083 6.13200712409 6.9169093874
In 1.00372005535 6.202706854005001 -0.03480051014
In 6.541783225350001 6.191476489005001 -0.06846167014
In 4.58404284965 3.2390428109950005 4.98343750514
In 10.12210601965 3.2278124459950006 4.94977634514
In 1.81154190049 1.5096003271750005 5.00831463514
In 7.34960507049 1.4983699621750002 4.97465347514
In 3.83790999451 7.978786937825 9.99238116986
Ga 9.375973164510002 7.967556572825002 9.95872000986
In 0.99258757077 0.32759409798 10.03503973881
In 6.53065074077 0.31636373298 10.00137857881
In 4.65674094625 9.16069989182 4.94555194857
In 10.19480411625 9.14946952682 4.91189078857
In 1.87941305565 5.01726413312 4.98162427857
In 7.4174762256500015 5.00603376812 4.94796311857
In 3.769915461370001 4.47102985668 9.99896740881
In 9.30797863137 4.45979949168 9.96530624881
In 3.84508277926 1.5094678042850005 7.88104658262
In 9.38314594926 1.4982374392850004 7.84738542262
In 1.7780896059999998 7.959051843115 2.83747216932
In 7.316152776 7.947821478115 2.80381100932
In 4.54361411636 6.199519671835 2.82877560182
In 10.08167728636 6.188289306835 2.79511444182
In 1.0795582689000005 3.2689999755650003 7.88974315012
In 6.6176214389000005 3.257769610565 7.85608199012
O 4.658756791559999 6.340780767085001 8.91932720944
O 10.19681996156 6.329550402085001 8.885666049440001
O 0.97749365958 3.1376260515150003 3.93022801022
O 6.51555682958 3.1263956865150004 3.89656685022
O 3.7434706957 1.6044057497550004 3.92048189272
O 9.281533865699998 1.5931753847550003 3.88682073272
O 1.89277975544 7.874001068844999 8.929073326940001
O 7.430842925439999 7.862770703845 8.89541216694
O 2.9464552361200003 0.108306059845 6.30467930124
O 8.484518406120001 0.097075694845 6.27101814124
O 2.6572234283 9.345476105955001 1.23738886674
O 8.195286598300001 9.334245740955 1.20372770674
O 5.41716678762 4.794764210595001 1.24163674924
O 10.955229957620002 4.7835338455950005 1.20797558924
O 0.1865118768 4.659017955205 6.30043141874
O 5.7245750468 4.6477875902050005 6.26677025874
O 0.10612859882 7.803804531334999 1.17962845486
O 5.64419176882 7.792574166335 1.14596729486
O 5.49656304176 1.649231432865 6.20160677216
O 11.034626211760001 1.638001067865 6.16794561216
O 2.73043516372 3.1070144447850008 6.21170273966
O 8.26849833372 3.0957840797850005 6.17804157966
O 2.87225647686 6.346021519415001 1.16953248736
O 8.410319646859998 6.334791154415001 1.13587132736
O 5.438099102260001 7.89260600107 6.34397927951
O 10.976162272260002 7.881375636069999 6.31031811951
O 0.16668996398 1.5620156415300002 1.37902594705
O 5.704753133980001 1.5507852765300003 1.34536478705
O 2.93892693978 3.15944286813 1.3547610545500002
O 8.47699010978 3.1482125031300003 1.32109989455
O 2.66586212646 6.295178774470001 6.36824417201
O 8.203925296459998 6.2839484094700016 6.33458301201
O 2.0558688605099995 1.639376408935 8.6854969382
O 7.59393203051 1.6281460439350002 8.6518357782
O 3.57705038517 7.836511979265 3.62124710572
O 9.11511355517 7.825281614265 3.58758594572
O 0.80500196177 6.333381364965001 3.64507468572
O 6.34306513177 6.322150999965 3.61141352572
O 4.82791728391 3.1425070232350003 8.6616693582
O 10.36598045391 3.1312766582350005 8.6280081982
O 4.68535975636 0.04201491609 9.01866846799
O 10.22342292636 0.03078455109 8.985007307990001
O 0.95175434064 9.437044828910002 3.97161557501
O 6.48981751064 9.42581446391 3.93795441501
O 3.71139601612 4.73545835387 3.97656315751
O 9.24945918612 4.72422798887 3.94290199751
O 1.9257180808800003 4.74360139113 9.01372088549
O 7.46378125088 4.73237102613 8.980059725490001
