80   
   
Al 1.6745922285 7.58765296342 6.614644082159999
In 6.8778092985 7.572195813419999 6.59200164216
In 3.59187975214 1.32053967084 1.85810460214
Al 8.795096822139998 1.30508252084 1.83546216214
In 0.99557136182 3.12645671002 1.86473887472
In 6.198788431819999 3.11099956002 1.84209643472
Al 4.270900618820001 5.78173592424 6.60800980958
In 9.47411768882 5.766278774240001 6.585367369579999
In 0.94864068325 5.85469856337 -0.01932037994
In 6.151857753250001 5.839241413370001 -0.04196281994
Al 4.301517506749999 3.0439187716300005 4.73778945494
Ga 9.50473457675 3.0284616216300004 4.71514701494
Al 1.69508111719 1.4136934980700002 4.75337997358
Ga 6.898298187189999 1.3982363480700002 4.730737533579999
Al 3.59648263281 7.5092266269299985 9.49371755142
In 8.79969970281 7.49376947693 9.47107511142
Al 0.9162917724 0.28873937871 9.51459981033
In 6.119508842399999 0.27328222871 9.49195737033
In 4.37518916648 8.634132140709998 4.71344045777
In 9.57840623648 8.61867499071 4.69079801777
Al 1.76203576188 4.7250145561100005 4.73497087017
Ga 6.965252831880001 4.70955740611 4.71232843017
Ga 3.5294451770000004 4.1978569633100005 9.493069397929998
Ga 8.732662247 4.18239981331 9.47042695793
Al 3.60090928805 1.40614007311 7.479877693279998
Al 8.80412635805 1.39068292311 7.457235253279999
Al 1.67301569339 7.50642706335 2.7080241120199995
Ga 6.876232763389999 7.49096991335 2.68538167202
Al 4.26974389715 5.84294079361 2.7010185960799995
Al 9.47296096715 5.827483643610001 2.67837615608
Al 1.00418108429 3.0696263428500004 7.48688320922
Al 6.20739815429 3.0541691928500003 7.46424076922
O 4.36799556557 5.964274961330001 8.4747720101
O 9.57121263557 5.9488178113300005 8.4521295701
O 0.91470739459 2.95344436661 3.7331990266
O 6.11792446459 2.93798721661 3.7105565866
O 3.5120653185100004 1.50360425103 3.72563664562
O 8.715282388510001 1.48814710103 3.70299420562
O 1.7706376416500005 7.41411507691 8.48233439108
O 6.9738547116500005 7.398657926909999 8.45969195108
O 2.75796920405 0.08728875897 5.981411189659999
O 7.961186274049998 0.07183160897 5.95876874966
O 2.50287162043 8.817598695850004 1.19544402544
O 7.70608869043 8.802141545850002 1.17280158544
O 5.09183327555 4.51914319147 1.19530651166
O 10.29505034555 4.50368604147 1.17266407166
O 0.16900754893 4.38574426335 5.98154870344
O 5.372224618929999 4.37028711335 5.95890626344
O 0.10475743599 7.364599175769999 1.13343576468
O 5.30797450599 7.34914202577 1.11079332468
O 5.15542089953 1.53989943441 5.89096139522
O 10.35863796953 1.5244422844099998 5.86831895522
O 2.55785306889 2.9185241652700005 5.89870939788
O 7.761070138890002 2.9030670152700004 5.87606695788
O 2.7023252666300004 5.985974444910001 1.12568776202
O 7.90554233663 5.970517294910001 1.1030453220199998
O 5.10585275322 7.43358661037 6.03788223657
O 10.30906982322 7.41812946037 6.01523979657
O 0.15573337134 1.4717382946700002 1.31048829063
O 5.35895044134 1.45628114467 1.28784585063
O 2.7618024241400003 2.9773366449700003 1.29522260993
O 7.96501949414 2.96187949497 1.27258016993
O 2.49978370042 5.92798826007 6.05314791727
O 7.70300077042 5.912531110070001 6.030505477269999
O 1.91867909503 1.52879311029 8.239673856159998
O 7.12189616503 1.51333596029 8.217031416159998
O 3.36178796489 7.38761386699 3.45375124424
O 8.565005034889998 7.37215671699 3.4311088042399995
O 0.75598129549 5.971034747590001 3.4687848978399995
O 5.95919836549 5.9555775975900005 3.44614245784
O 4.5244857644300005 2.94537222969 8.22464020256
O 9.72770283443 2.92991507969 8.201997762559998
O 4.38718071286 0.01785225669 8.55681332245
O 9.59039778286 0.00239510669 8.53417088245
O 0.89610192514 8.90020731031 3.78455851255
O 6.09931899514 8.884750160309999 3.76191607255
O 3.48464376682 4.45932103649 3.78479224213
O 8.68786083682 4.44386388649 3.76214980213
O 1.79863887118 4.45873853051 8.556579592869998
O 7.0018559411800005 4.44328138051 8.53393715287
