80   
   
Al 10.57663986931 -1.700865e-06 1.17087882193
Al 10.57662680931 2.955513299135 1.17092978193
Al 22.52995675931 -3.835865e-06 1.2108670419299998
In 22.52994369931 2.955511164135 1.21091800193
Al -0.0327141193100002 7.35865e-07 4.40339978807
Al -0.0327271793100001 2.955515735865 4.40345074807
Al 11.92060277069 -1.399135e-06 4.44338800807
Al 11.92058971069 2.9555136008650003 4.44343896807
Al 4.59997489431 1.477756866635 1.15091019193
Al 4.59996183431 4.433271866635001 1.1509611519299998
Al 16.553291784309998 1.4777547316350002 1.19089841193
Al 16.553278724309997 4.433269731635001 1.19094937193
Al 5.943937795689999 1.477757168365 4.42341937807
Al 5.94392473569 4.433272168365 4.4234703380700005
Al 17.89725468569 1.477755033365 4.46340759807
Al 17.89724162569 4.433270033365 4.46345855807
Al 9.08589065245 1.477756507085 3.83017878056
Al 9.085877592449998 4.433271507085 3.83022974056
Al 21.03920754245 1.4777543720850002 3.87016700056
Al 21.03919448245 4.433269372085 3.87021796056
Al 1.45802203755 1.477757527915 1.74415078944
Al 1.45800897755 4.433272527915 1.74420174944
Al 13.41133892755 1.477755392915 1.78413900944
Al 13.41132586755 4.433270392915 1.78418996944
Al 3.10923873745 7.4585e-08 3.81015919056
Al 3.10922567745 2.955515074585 3.81021015056
Al 15.06255562745 -2.060415e-06 3.85014741056
Al 15.06254256745 2.955512939585 3.85019837056
Al 7.43468701255 -1.039585e-06 1.7641194194399998
Al 7.43467395255 2.9555139604150003 1.76417037944
Al 19.38800390255 -3.174585e-06 1.80410763944
Al 19.38799084255 2.9555118254150003 1.80415859944
O 9.26948913985 -1.254355e-06 2.45155515837
O 9.26947607985 2.955513745645 2.45160611837
O 21.22280602985 -3.389355e-06 2.49154337837
O 21.22279296985 2.9555116106450003 2.49159433837
O 1.27443661015 2.89355e-07 3.12272345163
O 1.27442355015 2.955515289355 3.12277441163
O 13.22775350015 -1.845645e-06 3.1627116716299994
O 13.22774044015 2.955513154355 3.16276263163
O 3.2928241648500003 1.477757313145 2.43158652837
O 3.29281110485 4.433272313145 2.43163748837
O 15.24614105485 1.477755178145 2.47157474837
O 15.24612799485 4.433270178145 2.47162570837
O 7.25108852515 1.477756721855 3.14274304163
O 7.251075465149999 4.433271721855 3.14279400163
O 19.20440541515 1.4777545868550002 3.1827312616299994
O 19.20439235515 4.433269586855 3.18278222163
O 8.726661488549999 -7.41425e-07 4.9589086108
O 8.726648428549998 2.955514258575 4.9589595708
O 20.67997837855 -2.876425e-06 4.9988968308
O 20.67996531855 2.955512123575 4.9989477908
O 1.81726426145 -2.23575e-07 0.6153699992
O 1.81725120145 2.9555147764250003 0.6154209592
O 13.770581151450001 -2.358575e-06 0.6553582191999999
O 13.77056809145 2.955512641425 0.6554091792
O 2.74999651355 1.4777578260750002 4.9389399808
O 2.74998345355 4.433272826075 4.9389909408
O 14.703313403549997 1.477755691075 4.9789282008
O 14.703300343549996 4.433270691075 4.9789791608
O 7.79391617645 1.477756208925 0.6353895892
O 7.793903116450002 4.433271208925 0.6354405491999999
O 19.74723306645 1.477754073925 0.6753778092
O 19.74722000645 4.4332690739250005 0.6754287692
O -0.99937087946 1.47775836077 4.11216319265
O -0.99938393946 4.43327336077 4.11221415265
O 10.95394601054 1.47775622577 4.15215141265
O 10.953932950539999 4.43327122577 4.15220237265
O 11.54328356946 1.47775567423 1.46216637735
O 11.54327050946 4.43327067423 1.46221733735
O 23.49660045946 1.47775353923 1.50215459735
O 23.49658739946 4.43326853923 1.50220555735
O 4.9772940955400005 -2.0673e-07 4.13213182265
O 4.977281035540001 2.95551479327 4.13218278265
O 16.93061098554 -2.34173e-06 4.17212004265
O 16.93059792554 2.95551265827 4.17217100265
O 5.566631654459999 -7.5827e-07 1.44214678735
O 5.56661859446 2.95551424173 1.44219774735
O 17.51994854446 -2.89327e-06 1.48213500735
O 17.51993548446 2.95551210673 1.48218596735
