40   
   
Al 7.973322997193981 -0.0522059652182563 13.313426278310656
Ga 4.875294905 -0.01934806 -0.04012671
Al 8.917294105306016 1.3980493764682562 2.255572527939344
Al 4.041999200306017 1.4173974364682562 2.295699237939344
Al 4.8157507175 -0.02715818125 5.19564448875
Al 1.5787861878060174 -0.0125238922817437 4.058890964189344
Al -0.07939225 -0.010413495 6.981028265
Al 8.072563309693981 -0.0391890964682563 4.587140947060656
Ga 2.3639727 1.4169044599999998 6.963093605
Al 7.239267605 1.3975563999999998 6.922966895
Ga 8.013019122193981 -0.0469992177182563 9.822912145810657
Al 4.7760545925 -0.03236492875 8.686158621249998
Al 3.1178761546939815 -0.0302545314682563 11.608295922060655
Al 1.5192420003060174 -0.0203340135317437 9.294662162939344
Al 5.5612411046939805 1.3970634235317436 11.590361262060656
Al 10.436536009693981 1.3777153635317436 11.550234552060656
O 3.3017038529 -0.01492697495 1.15948864225
O 1.4803397978060175 -0.0254366260817437 12.715366012789344
O 5.6473342049 1.3552982618499998 1.14227136865
O 10.5230865097 1.45090956065 1.10231495425
O 8.11146551219398 -0.0340864839182563 1.1664370972106564
O 6.2901014571 -0.04459613505 12.72231446775
O 8.8312010051 1.43981453815 12.70366242135
O 3.9554487003 1.34420323935 12.74361883575
O 6.498972257593982 -0.0347680114182563 5.786756299310657
O 4.8363927025 -0.02445067255 3.38057713985
O 8.84460260959398 1.3354572253817436 5.769539025710657
O 3.9697651043939826 1.4697646441817438 5.809836031310656
O 1.5581442028060175 -0.0152314009817437 5.873958313089344
O 9.646154361793982 -0.0436101815182563 3.387525594810656
O 12.187253909793982 1.4408004916817436 3.368873548410656
O 7.311501604993981 1.3451891928817437 3.408829962810656
O -0.0543490517939823 -0.0159129284817437 10.494277515189346
O 8.03366110719398 -0.0442917090182563 8.007844796910655
O 2.291281300206017 1.3543123083182562 10.477060241589346
O 7.167033605006018 1.4499236071182562 10.437103827189343
O 4.7554126075 -0.03507243745 10.50122597015
O 3.092833052406017 -0.0247550985817437 8.095046810689345
O 5.633932600406018 1.4596555746182562 8.076394764289345
O 10.508770105606017 1.325348155818256 8.036097758689344
