40   
   
Ga 3.3587244490127 0.0008216094583168 2.977743344451816
In 6.6806806409872985 -0.0195740894583168 11.377529085548185
In -0.01225601875 -0.00707243625 1.80734756125
Al -0.08579213125 -0.04950705375 12.65143292875
Al 6.741960734737297 0.0157880917916832 2.340791279298184
Al 3.2974443552627 -0.0345405717916832 12.014481150701815
Al 10.944093420262702 1.5035778382083167 4.713307570701816
Al 9.2218350297373 1.4784135067916833 9.550152219298186
Ga 4.1531084097373 1.4595000017916833 9.601906249298183
Al 5.8753668002627 1.4846643332083167 4.765061600701816
Al 6.70519277888135 -0.0054292171458416 7.762834106600909
Al 3.334212311118649 -0.0133232628541584 6.592438323399092
Ga -0.049024075 -0.028289745 7.229390245
In 5.06872662 0.018913505 -0.05175403
Ga 2.52889837 1.49091516 -0.020029305
Ga 7.59762499 1.509828665 -0.071783335
O 5.11163422398135 0.0049265133541584 3.586349054100908
O 4.927770866018649 -0.0236789933541584 10.76892337589909
O 3.371470709493181 0.0081769437241117 1.0981017361640115
O 6.667934380506817 -0.0269294237241117 13.257170693835988
O 7.5393765578068175 1.436205066575888 3.5671209223359885
O 2.4895358473931823 1.3894425958241117 10.799379110864013
O 7.557825272193182 1.5268727734241117 10.748092897664012
O 12.607665982606816 1.573635244175888 3.5158347091359885
O -0.02500227825 -0.01442776995 3.68698902495
O -0.07304587175 -0.04215172005 10.77179146505
O 8.37228744628135 0.0266496698541584 1.095233791600908
O 1.6671176437186497 -0.0454021498541584 13.260038638399092
O 11.002341751081348 1.5772014362541582 1.0744033144009082
O 9.163149605093182 1.5233065817241116 13.189524291364009
O 4.094860078918649 1.3858764037458415 13.240810505599091
O 5.934052224906818 1.439771258275888 1.1256895286359887
O 8.458102553849999 -0.00132431325 8.371439816249998
O 1.58130253615 -0.01742816675 5.98383261375
O 6.717938937987299 0.0019261167416832 5.883192499348184
O 3.3214661520127 -0.0206785967416832 8.472079930651818
O 10.88584498905 1.42995424035 8.352211683449998
O 9.28052065615 1.43352043205 5.91078028975
O 4.21135684095 1.53312359965 5.96300213655
O 5.816681173849999 1.52955740795 8.404433530249998
