40   
   
Al -0.1050943306095144 3.3855921807328557 13.487974039769501
Al 1.4299721862883796 2.5092618185003626 2.349604120303983
Al 2.87336399628838 0.0038152985003626 2.374807210303983
Al -1.4623061487116202 2.5137979835003628 2.323329435303983
Al 2.8515526743211344 1.683040235766782 5.302428929926519
Al -0.0331000924616201 0.0146150610003626 4.109931884053984
Al -1.4983032244288657 4.199286518266782 7.01235051367652
Al -0.0549114144288657 1.693839998266782 7.037553603676519
Al 1.3939751105711342 4.194750353266782 7.038625198676519
Al -0.0341655618595144 3.3542741932328557 4.6809772460194985
Al -0.0767228231095144 3.373064985732855 9.965175322269497
Al 2.823181166821134 1.695567430766782 8.825227647426518
Ga 4.244761568140486 0.8693458982328554 11.778052456019498
Al 2.8013697581404853 3.3747924182328557 11.752849366019497
Ga 1.3524832331404857 0.8738820632328553 11.751777771019501
Ga -0.0756573537116201 0.0334058535003626 9.394129960303983
O 4.271878069421134 0.8653142303667821 1.2324553056265186
O 2.886221931821134 3.2705428895667823 1.2082603392265183
O 1.495290867821134 0.869668948766782 1.2072316080265186
O -0.1034614310616201 0.0456825046003626 12.846472703453983
O -0.0063614845095144 3.341997542132855 1.2286345028694987
O 1.4028557717211338 2.5132934361667822 12.89520127172652
O 2.7885119093211337 0.1080647769667821 12.91939623812652
O 4.179442973321134 2.5089387177667826 12.92042496932652
O 1.3436025719904858 2.5553389803328552 5.895201697969499
O -0.0420535656095141 4.960567639532855 5.871006731569499
O -1.4329846296095143 2.559693698732855 5.869978000369499
O 2.8663058582211343 1.676526094366782 3.470573596826519
O -0.0478532763616201 0.0211292024003626 5.941787217153984
O -1.4119336957095143 4.153209406132856 3.4667527940694987
O -0.0262775581095144 1.7479807469328554 3.4909477604694987
O 1.3646535058904854 4.148854687732856 3.491976491669498
O -1.5846728398616203 4.245363680600361 10.557948232253985
O -0.0835453574616202 1.6396992998003628 10.584159445853983
O 1.42329662853838 4.240646069000362 10.585273904653985
O -0.0619696392095144 3.366550844332856 8.133319989169497
O 2.8084279829211343 1.702081572166782 10.65708298052652
O 4.331131182438379 0.8232687364003626 8.232454878353984
O 2.8300037000383798 3.428933117200363 8.206243664753984
O 1.3231617140383798 0.8279863480003625 8.205129205953984
