80   
   
In 1.71571052914 7.78374938114 6.76054829792
Al 7.062164994140001 7.77359790114 6.73461933792
Al 3.69025443646 1.35892497834 1.89815977222
In 9.03670890146 1.34877349834 1.87223081222
In 1.02048034548 3.20681887466 1.9046978989600003
In 6.366934810479999 3.19666739466 1.87876893896
In 4.385484620120001 5.93585548482 6.75401017118
In 9.73193908512 5.925704004820001 6.72808121118
Al 0.968263701315 6.001026186360001 -0.02557465238
In 6.314718166315 5.9908747063600005 -0.05150361238
In 4.419007973685 3.12844270364 4.842804467380001
Al 9.765462438685 3.1182912236400004 4.816875507380001
In 1.742635305345 1.4549118062000002 4.861622655300001
In 7.089089770345 1.4447603262000002 4.835693695300001
In 3.692081269655 7.708073503799999 9.7055519697
Al 9.038535734655 7.6979220238 9.6796230097
In 0.94611464802 0.30546331974 9.73488439101
In 6.292569113019999 0.29531183974 9.70895543101
In 4.48850703718 8.85745495742 4.812790344370001
In 9.83496150218 8.84730347742 4.78686138437
Al 1.80775811028 4.84847134702 4.83975282157
Ga 7.15421257528 4.83831986702 4.81382386157
Al 3.62686357492 4.314446930140001 9.70792191381
Al 8.97331803992 4.304295450140001 9.681992953810001
Al 3.702344322145 1.4517130178600002 7.65045048796
In 9.048798787145 1.4415615378600002 7.62452152796
Al 1.712160725455 7.69699429722 2.76324764798
Ga 7.058615190454999 7.686842817219999 2.73731868798
Al 4.382208332595 5.99506619546 2.75620050316
In 9.728662797595 5.98491471546 2.73027154316
In 1.032296715005 3.1536411196200005 7.657497632780002
Al 6.378751180005 3.1434896396200003 7.631568672780001
O 4.486015441625001 6.124709371180001 8.66392228902
O 9.832469906624999 6.1145578911800005 8.63799332902
O 0.938547924775 3.0311034249400004 3.81676414664
O 6.285002389775 3.0209519449400006 3.79083518664
O 3.609005806155 1.5481240150200002 3.808953474700001
O 8.955460271154998 1.5379725350200002 3.783024514700001
O 1.815557560245 7.6076887811 8.67173296096
O 7.162012025245 7.597537301100002 8.64580400096
O 2.836885289065 0.09785806062 6.118816258820001
O 8.183339754065 0.08770658062 6.09288729882
O 2.562627170135 9.04025806574 1.21389931716
O 7.909081635135 9.030106585740002 1.1879703571600002
O 5.227614728315 4.63796276462 1.2162690068200002
O 10.574069193315 4.62781128462 1.19034004682
O 0.171897730885 4.50015336174 6.116446569160001
O 5.518352195884999 4.49000188174 6.09051760916
O 0.100075016395 7.548510220939998 1.1530445156
O 5.446529481395 7.538358740939999 1.1271155556
O 5.298678324405 1.5890696427 6.02367194342
O 10.645132789405 1.5789181627 5.99774298342
O 2.628083684945 2.9990661553400004 6.0317371244
O 7.974538149945001 2.98891467534 6.0058081644
O 2.770669655855 6.1385137083000005 1.14497933462
O 8.117124120855001 6.1283622283 1.11905037462
O 5.2412977107800005 7.6291061409999985 6.1686974586100005
O 10.587752175779999 7.618954660999998 6.142768498610001
O 0.15906875662 1.50961328092 1.33951712395
O 5.50552322162 1.49946180092 1.3135881639500002
O 2.8352020983200004 3.0554241081200004 1.3211443268500005
O 8.18165656332 3.04527262812 1.2952153668500002
O 2.56516436908 6.0832953138 6.18707025571
O 7.91161883408 6.073143833800001 6.16114129571
O 1.974063454465 1.5762471026400002 8.428683533800001
O 7.320517919464998 1.5660956226400002 8.402754573800001
O 3.447937887335 7.5777558068 3.52550588212
O 8.794392352335 7.5676043268 3.49957692212
O 0.771975493235 6.1231736012 3.5435605429200003
O 6.118429958235001 6.1130221212 3.51763158292
O 4.650025848564999 3.03082930824 8.410628873
O 9.996480313565002 3.02067782824 8.384699913
O 4.5123534375 0.03080100288 8.75324190481
O 9.8588079025 0.02064952288 8.72731294481
O 0.9128741575 9.12548102312 3.863943758190001
O 6.2593286225 9.11532954312 3.838014798190001
O 3.57758819952 4.57721992744 3.86682246593
O 8.92404266452 4.56706844744 3.840893505930001
O 1.84763939548 4.57906209856 8.750363197070001
O 7.194093860480001 4.56891061856 8.724434237070001
