80   
   
Al -0.05440238 -0.0547180575 6.0012430525
Al -0.16320714 -0.1641541725 18.003729157499997
Al 4.63243516 2.9136654275 6.0685057925
Al 4.5236304 2.8042293125 18.0709918975
Al 3.14592221 0.0765461575 6.0306942475
Al 3.03711745 -0.0328899575 18.0331803525
Al 1.43211057 2.7824012124999995 6.0390545975
In 1.32330581 2.6729650975 18.0415407025
Al 0.0 0.0 0.0
Al -0.10880476 -0.109436115 12.002486105
Al 4.68683754 2.968383485 0.06726274
In 4.57803278 2.85894737 12.069748845
Ga 3.20032459 0.131264215 0.029451195
Al 3.09151983 0.0218281 12.0319373
In 1.48651295 2.83711927 0.037811545
Al 1.37770819 2.727683155 12.04029765
Al -0.1029598433770001 1.8201143137725 3.0160106188535
In -0.211764603377 1.7106781987725 15.018496723853497
In -1.8167714833770003 4.5259693687725 3.0243709688535
In -1.9255762433770005 4.4165332537725 15.0268570738535
In 3.097364746623 1.9513785287725 3.0454618138535
Al 2.988559986623 1.8419424137725 15.047947918853497
Al 1.3835531066229998 4.657233583772499 3.0538221638535
Al 1.274748346623 4.5477974687725 15.0563082688535
In 1.4806680333770004 0.9075688412275 9.0242870311465
In 1.3718632733770004 0.7981327262274999 21.026773136146495
Al -0.233143606623 3.6134238962274994 9.0326473811465
Al -0.341948366623 3.5039877812274995 21.035133486146496
Al 4.680992623377 1.0388330562275 9.0537382261465
Al 4.572187863377 0.9293969412274998 21.056224331146495
Al 2.967180983377 3.7446881112275 9.0620985761465
In 2.8583762233770003 3.6352519962275 21.064584681146496
O -0.1207929435410001 1.802177734524 4.983218091463
O -0.229597703541 1.692741619524 16.985704196462994
O -1.8346045835410003 4.508032789524 4.991578441462999
O -1.9434093435410005 4.398596674524 16.994064546462994
O 3.079531646459 1.933441949524 5.012669286463
O 2.970726886459 1.824005834524 17.015155391462994
O 1.3657200064589998 4.639297004524 5.021029636462999
O 1.256915246459 4.529860889524 17.023515741462994
O 1.4985011335410003 0.925505420476 7.057079558537
O 1.3896963735410004 0.8160693054759999 19.059565663536997
O -0.215310506459 3.631360475476 7.065439908536999
O -0.324115266459 3.5219243604759995 19.067926013536997
O 4.698825723541 1.056769635476 7.086530753536999
O 4.590020963541 0.9473335204759998 19.089016858536997
O 2.985014083541 3.762624690476 7.094891103536999
O 2.876209323541 3.653188575476 19.097377208536997
O 1.4628349332130004 0.8896322619789999 10.991494503756002
O 1.3540301732130002 0.7801961469789999 22.993980608756
O -0.250976706787 3.595487316979 10.999854853756
O -0.359781466787 3.4860512019789995 23.002340958756
O 4.663159523213 1.020896476979 11.020945698756002
O 4.554354763213 0.9114603619789998 23.023431803756
O 2.949347883213 3.726751531979 11.029306048756
O 2.840543123213 3.617315416979 23.031792153756
O -0.0851267432130001 1.838050893021 1.048803146244
O -0.1939315032130001 1.728614778021 13.051289251244
O -1.7989383832130004 4.543905948021 1.057163496244
O -1.9077431432130003 4.434469833021 13.059649601244
O 3.1151978467870003 1.969315108021 1.0782543412439998
O 3.006393086787 1.859878993021 13.080740446244
O 1.4013862067869998 4.675170163021 1.0866146912439998
O 1.2925814467869998 4.565734048021 13.089100796244
O -0.02720119 -0.02735902875 3.00062152625
O -0.13600595 -0.13679514375 15.00310763125
O 4.65963635 2.94102445625 3.06788426625
O 4.55083159 2.83158834125 15.070370371249997
O 3.1731234 0.10390518625 3.03007272125
O 3.06431864 -0.00553092875 15.032558826249996
O 1.45931176 2.80976024125 3.03843307125
O 1.350507 2.7003241262499995 15.040919176249997
O -0.08160357 -0.08207708625 9.001864578749998
O -0.19040833 -0.19151320125 21.00435068375
O 4.60523397 2.88630639875 9.06912731875
O 4.49642921 2.77687028375 21.07161342375
O 3.11872102 0.04918712875 9.031315773749998
O 3.00991626 -0.06024898625 21.03380187875
O 1.40490938 2.75504218375 9.039676123749999
O 1.2961046200000002 2.64560606875 21.04216222875
