30   
   
In -0.0019017691174 0.00325887650348 2.02517237228952
Ga -0.0083334441174 0.01428021150348 8.874190162289521
Al -0.0109615808826 0.01878379349652 11.67286320771048
Ga -0.0045299058826 0.00776245849652 4.823845417710481
Al 2.527482156449309 1.4949730585785128 6.5909612666730775
In 2.521050481449309 1.5059943935785127 13.439979056673074
Al 2.5312856946841094 1.4884553055715528 2.540616522094037
Ga 2.5248540196841094 1.4994766405715527 9.389634312094037
In -0.0291888646841096 2.9541364844284472 11.152605687905965
Al -0.0227571896841096 2.9431151494284475 4.303587897905963
Al -0.0253853264493096 2.9476187314214872 7.102260943326924
Ga -0.0189536514493096 2.9365973964214875 0.2532431533269233
O 3.5246752625268 0.028089204412 3.4273837622804004
O 0.7672673632448 1.3597900959032 3.4230342709668
O -1.7866299582716 3.0492018221848003 3.4182952817528003
O 1.7348294667552002 3.0828016940968004 10.2701879390332
O -0.7973280817284 1.3608391678152 10.2707823182472
O 1.5485162574732 0.026504265588 10.2747964277196
O 0.9680043180935096 1.4872525864870327 7.9890280466639565
O 3.2966512888115105 2.8515042779782327 7.9888231653503565
O 3.31384865729511 0.1529176842598327 7.993042156136357
O 1.7621165623219095 0.1319240861718327 1.1427546234167567
O 1.7449191938383095 2.830510679890233 1.1385356326307567
O 4.09076353303991 1.496175777663033 1.1425497421031567
O -1.5886667030399098 2.946416012336967 12.550672467896845
O 0.7399802676780906 4.310667703828168 12.550467586583245
O 0.7571776361616903 1.6120811101097674 12.554686577369244
O -0.7945544588115097 1.5910875120217676 5.704399044649644
O -0.8117518272951093 4.2896741057401675 5.700180053863644
O 1.5340925119064903 2.955339203512968 5.704194163336044
