80   
   
Ga 6.8739562625 2.29107396 6.835882967499999
Ga 2.2893469875 6.847643804999999 6.8625097325
Al 6.8438342075000005 6.87190753 2.2752119925
Al 6.8602017675 6.861696554999999 6.8458305825
Al 2.2729794275 6.85785478 2.2918911425
Al 6.8575887025 2.301284935 2.2652643775
Al 2.3031014825 2.27702121 6.8525621175
Al 2.2867339225000003 2.287232185 2.2819435275
Ga 6.85983054066 4.27068840854 4.55487104218
Al 2.25885370566 8.83746922854 0.01087921718
Al 6.84159236934 4.90250405646 -0.01439467218
Al 4.565477603420001 6.8604700138 4.25805879838
Al 0.02474487842 2.2655836938 8.83540892338
Al -0.00315118842 6.8450285712 4.89634207662
Al 4.270833499960001 4.5684032955 6.850330532199999
Ga 8.839075214959998 0.0220444255 2.2530851772
Ga 4.906224245040001 -0.0003081255 6.8381145528
Al 2.2871051493400003 4.87824033146 4.57290306782
Al 6.85534686434 0.33188146146 -0.02434228718
Al 2.27260820066 4.266846633539999 0.00093160218
Ga 4.58145808658 2.2884587262 4.86971531162
Al -0.01951874842 6.855239546199999 0.32572348662
Ga 0.00837731842 2.2757946688 4.26479033338
Ga 4.876102190040001 4.5805254445 2.2774435778
Ga 0.33536946504 -0.0143608755 6.8547937028
Al 4.268220434960001 0.0079916755 2.2697643272
Al 2.30085964434 0.30761773646 4.56295545282
Al 4.56509052658 2.2986697012 0.29909672162
Ga 0.3052474100400001 4.5664726945 2.2941227278
Ga 6.84607604566 8.841311003539998 4.56481865718
Al 4.581845163420001 6.8502590388 8.82867738838
Ga 8.841688279959998 4.582456045499999 6.833651382199999
O 5.67857815083 3.57825548009 5.98374847901
O 3.4769675639900006 8.138293428489998 7.72025467585
O 8.03305811661 5.58856533651 1.40879389115
O 5.67873539357 5.56720760491 7.706638228989998
O 5.992705329480001 5.67802424335 3.56467573518
O 7.734316444360002 3.47919825675 8.12424810958
O 1.42183446824 8.03624325765 5.579317350219999
O 7.718482982920001 5.678856092249999 5.551194080019999
O 3.5766583149200004 5.994984486139999 5.66757522718
O 8.134484976000001 7.732492599859999 3.46073945722
O 5.5918166252 1.4251791831399998 8.02707716958
O 5.56437930888 7.719665580859998 5.66404342102
O 3.4683575391700003 5.57067325991 3.1440256309899994
O 5.6699681260100006 1.01063531151 1.40751943415
O 1.1138775733900002 3.56036340349 7.718980218849999
O 3.46820029643 3.58172113509 1.42113588101
O 3.15423036052 3.47090449665 5.563098374819999
O 1.41261924564 5.66973048325 1.00352600042
O 7.725101221760002 1.11268548235 3.54845675978
O 1.42845270708 3.47007264775 3.57658002998
O 5.57027737508 3.1539442538599998 3.46019888282
O 1.012450714 1.41643614014 5.667034652779999
O 3.5551190648000004 7.723749556859999 1.1006969404199998
O 3.5825563811200003 1.4292631591399998 3.46373068898
O 1.07760131583 8.14503630009 1.43975665401
O 8.04520927899 3.59193455849 3.12300932085
O 3.492325391610001 0.99367901651 5.98614401615
O 1.10526754857 0.99274323491 3.14275117399
O 1.45197260448 1.08313792335 8.142025860179999
O 3.13333960936 8.045979076750001 3.58025628458
O 5.990076183240001 3.48988438765 0.98207199522
O 3.14501513792 1.1043917222499997 0.98730702502
O 8.14490002992 1.44862561614 1.07032987218
O 3.5937522510000006 3.1376062798599995 8.038089582219998
O 0.9908397902 5.991960003139999 3.48308534458
O 0.99091146388 3.14520121086 1.1001563660199998
O 8.069334374169998 1.00389243991 7.688017455989998
O 1.10172641101 5.55699418151 6.004764789149999
O 5.654610298390001 8.155249723489998 3.1416300938499995
O 8.041668141429998 8.156185505089999 5.98502293601
O 7.69496308552 8.065790816649999 0.98574824982
O 6.013596080640001 1.1029496632499998 5.547517825419999
O 3.15685950676 5.65904435235 8.14570211478
O 6.0019205520800005 8.04453701775 8.14046708498
O 1.00203566008 7.700303123859999 8.057444237819999
O 5.553183439 6.01132246014 1.0896845277799998
O 8.156095899799999 3.15696873686 5.64468876542
O 8.156024226119998 6.00372752914 8.027617743979999
