80   
   
Al -0.0593897275 -0.0336738775 5.9444713475
In -0.1781691825 -0.1010216325 17.833414042500003
Ga 4.5637573025 2.7955811475 6.0056415625
Al 4.444977847500001 2.7282333925 17.8945842575
Al 3.0689632925 0.0463228375 5.9761272925
Al 2.9501838375 -0.0210249175 17.8650699875
Ga 1.4354042825000002 2.7155844325 5.9739856175
Al 1.3166248275 2.6482366775 17.862928312500003
Al 0.0 0.0 0.0
Al -0.118779455 -0.067347755 11.888942695
Al 4.62314703 2.829255025 0.061170215
Ga 4.504367575 2.76190727 11.95011291
Al 3.12835302 0.079996715 0.031655945
Al 3.009573565 0.01264896 11.92059864
Ga 1.49479401 2.74925831 0.02951427
Ga 1.376014555 2.681910555 11.918456965
Al -0.07594523825 1.7891557455865 2.9813589596635004
Al -0.19472469325 1.7218079905865 14.870301654663502
Ga -1.7095042482500002 4.4584173405865 2.9792172846635
Ga -1.82828370325 4.3910695855865 14.868159979663501
In 3.05240778175 1.8691524605865 3.0130149046635
Ga 2.93362832675 1.8018047055865 14.9019575996635
Ga 1.4188487717499996 4.5384140555865 3.0108732296635004
Al 1.3000693167499997 4.4710663005865 14.899815924663502
Al 1.45195979325 0.8927548094134999 8.937098005336502
Al 1.33318033825 0.8254070544134999 20.826040700336506
Ga -0.1815992167499998 3.5620164044134994 8.934956330336501
Ga -0.3003786717499998 3.4946686494134998 20.823899025336498
Ga 4.58031281325 0.9727515244135 8.968753950336499
Al 4.46153335825 0.9054037694135 20.857696645336507
Al 2.9467538032500005 3.6420131194135 8.9666122753365
Ga 2.82797434825 3.5746653644135 20.855554970336506
O -0.0954131909245 1.778117448542 4.929956667374
O -0.2141926459245 1.710769693542 16.818899362374
O -1.7289722009245 4.447379043542 4.927814992374
O -1.8477516559245 4.380031288542 16.816757687374
O 3.0329398290755 1.858114163542 4.961612612374
O 2.9141603740755 1.790766408542 16.850555307374
O 1.3993808190754995 4.527375758542 4.959470937374
O 1.2806013640754996 4.460028003542 16.848413632374
O 1.4714277459245002 0.903793106458 6.988500297626
O 1.3526482909245 0.8364453514579999 18.877442992626
O -0.1621312640754998 3.573054701458 6.986358622626
O -0.2809107190754998 3.5057069464579995 18.875301317626
O 4.5997807659245 0.983789821458 7.020156242626
O 4.4810013109245 0.916442066458 18.909098937626
O 2.9662217559245003 3.653051416458 7.018014567626
O 2.8474423009245005 3.585703661458 18.906957262626
O 1.4324918405755 0.881716512369 10.885695713047
O 1.3137123855755002 0.8143687573689999 22.774638408047
O -0.2010671694244998 3.550978107369 10.883554038047
O -0.3198466244244998 3.4836303523689995 22.772496733047003
O 4.5608448605755 0.961713227369 10.917351658047002
O 4.4420654055755 0.894365472369 22.806294353047
O 2.9272858505755 3.630974822369 10.915209983047
O 2.8085063955755003 3.563627067369 22.804152678047
O -0.0564772855755 1.800194042631 1.032761251953
O -0.1752567405755 1.732846287631 12.921703946953002
O -1.6900362955755002 4.469455637631 1.030619576953
O -1.8088157505755005 4.402107882631 12.919562271953
O 3.0718757344245 1.880190757631 1.064417196953
O 2.9530962794245 1.812843002631 12.953359891953
O 1.4383167244244996 4.5494523526310005 1.062275521953
O 1.3195372694244996 4.482104597631 12.951218216953002
O -0.02969486375 -0.01683693875 2.97223567375
O -0.14847431875 -0.08418469375 14.86117836875
O 4.5934521662500005 2.81241808625 3.0334058887500004
O 4.47467271125 2.74507033125 14.92234858375
O 3.09865815625 0.06315977625 3.00389161875
O 2.97987870125 -0.00418797875 14.89283431375
O 1.46509914625 2.73242137125 3.00174994375
O 1.3463196912500002 2.66507361625 14.89069263875
O -0.08908459125 -0.05051081625 8.916707021250001
O -0.20786404625 -0.11785857125 20.80564971625
O 4.53406243875 2.77874420875 8.97787723625
O 4.41528298375 2.71139645375 20.86681993125
O 3.0392684287500003 0.02948589875 8.94836296625
O 2.92048897375 -0.03786185625 20.83730566125
O 1.40570941875 2.69874749375 8.946221291250001
O 1.28692996375 2.63139973875 20.83516398625
