40   
   
In 8.143514102301832 -0.0764778868115344 13.77762932921568
Ga 5.02883551 -0.006657225 -0.062716865
In 9.180155822698168 1.4689270480615344 2.306341764534319
Ga 4.151320312698167 1.4755842730615345 2.3690586295343192
Ga 4.935752665000001 -0.03224168625 5.36943171625
Ga 1.603880767698167 -0.0221181006884656 4.20409887828432
In -0.12411046 -0.034112615 7.242864775
Ga 8.298652177301832 -0.0338371180615344 4.72404836046568
Ga 2.39230147 1.455061605 7.21854072
Ga 7.421136980000002 1.44840438 7.155823855
In 8.205569332301833 -0.0594215793115344 10.15619694171568
Ga 4.873697435 -0.04929799375 8.99086410375
Ga 3.1457062073018327 -0.0612925080615344 12.02963000046568
Ga 1.5107979226981672 -0.0477025619384656 9.63624745953432
In 5.662118137301833 1.4278817119384657 12.00530594546568
Ga 10.690953647301834 1.4212244869384656 11.94258908046568
O 3.3985093686000005 -0.01032605755 1.18863954355
O 1.4499837972981673 -0.0644177432884656 13.18525119928432
O 5.8142648214 1.4192811936499998 1.16528845075
O 10.843259865399999 1.53202419525 1.10313433595
O 8.359466302701833 -0.0171219367115344 1.1750446207156806
O 6.410940731400001 -0.07121362245 13.17165627645
O 9.028009138600002 1.47752756635 13.14635925925
O 3.9990140945999992 1.36478456475 13.20851337405
O 6.668326035901833 -0.0375059506115344 5.975404769015681
O 4.9680213846 -0.02337240635 3.48628687475
O 9.084081488701832 1.3921013005884657 5.952053676215681
O 4.055405512701833 1.5181587521884656 6.015333291415681
O 1.571612048098167 -0.0309873805884656 6.08724371978432
O 9.928978318701832 -0.0301682855115344 3.4726919519156807
O 12.546046725901832 1.5185729032884656 3.4473949347156805
O 7.517051681901834 1.4058299016884654 3.5095490495156807
O -0.119528218701833 -0.0513713944884656 10.88760386808432
O 8.237838051901836 -0.0505522994115344 8.273052100215681
O 2.296227234098166 1.3782358567115345 10.86425277528432
O 7.325222278098167 1.4909788583115344 10.80209866048432
O 4.8414287154 -0.05816727365 10.87400894525
O 3.1411240640981672 -0.0440337293884656 8.38489105098432
O 5.758192471298168 1.5047074594115344 8.35959403378432
O 10.786868447298167 1.3786500078115345 8.29631441858432
