80   
   
Ga 7.130904237499999 2.37375733 7.1025564775
Ga 2.3763561525 7.108462345 7.124056297499999
Ga 7.108970587499999 7.127879040000001 2.3667753125
Ga 7.1212418474999994 7.118613735 7.1114520375
Ga 2.3640848925 7.117727650000001 2.3793795725
Ga 7.118632977499999 2.383022635 2.3578797525
Ga 2.3860185425 2.36360594 7.115160737499999
Ga 2.3737472825 2.372871245 2.3704840125
Ga 7.12059445502 4.4281679494600015 4.73406099692
Ga 2.35377511002 9.17213826946 0.01088409192
Ga 7.107009109979999 5.082733725540001 -0.00940593192
Ga 4.741828924319999 7.1188007332400005 4.4227777877
Al 0.01887687932 2.35452763324 9.1711632127
Ga -0.00138787932 7.10738926176 5.0806580823
Ga 4.43097796774 4.74041954298 7.11416347718
Ga 9.173254792739998 0.01497983298 2.34798693218
Ga 5.085944812259999 -0.00305627298 7.10355373782
Al 2.37439467498 5.06331703054 4.74787505308
Ga 7.116671499979999 0.33787732054 -0.01830149192
In 2.36343750002 4.427281864460001 0.00198853192
In 4.75316020568 2.37268424676 5.0591582623
In -0.01365913932 7.11665456676 0.3359813573
Ga 0.00660561932 2.36379293824 4.4264864877
Ga 5.06401116226 4.75106543702 2.36777257282
In 0.34105911726 -0.01320766298 7.11615799782
Ga 4.42836909774 0.00482844298 2.36059119218
Ga 2.38405706498 0.31846062554 4.73897949308
Ga 4.740888945679999 2.38194955176 0.3144815373
Al 0.31912546726 4.74091404702 2.38037683282
Ga 7.110932065019999 9.17302435446 4.74295655692
In 4.75410018432 7.10953542824 9.1674545127
Al 9.175863662739998 4.75057093298 7.101559217179999
O 5.89220216594 3.71090935215 6.21634290872
O 3.6096086361 8.44740933527 8.015286962119998
O 8.3430586653 5.7942107725300005 1.4689904326799998
O 5.8926033576600005 5.776182990050001 8.004219821479998
O 6.22290479356 5.889695097370001 3.70483090423
O 8.02389102208 3.606715640610001 8.440498558669999
O 1.4783449251199998 8.342829364990001 5.79073990753
O 8.01233208424 5.88947234703 5.768770754569999
O 3.71303992021 6.2217010121400005 5.8852135824
O 8.448402351770001 8.02036575682 3.59850922496
O 5.797853528429999 1.47645265458 8.33805446204
O 5.77817702459 8.010193026460001 5.8830628556
O 3.60278696406 5.78057562785 3.26559314128
O 5.8853804939000005 1.04407564473 1.4666490878799998
O 1.1519304647 3.69727420747 8.01294561732
O 3.60238577234 3.71530198995 1.4777162285199998
O 3.2720843364399994 3.6017898826300003 5.777105145769999
O 1.47109810792 5.884769339390001 1.04143749133
O 8.01664420488 1.14865561501 3.69119614247
O 1.48265704576 3.6020126329700006 3.71316529543
O 5.7819492097900005 3.26978396786 3.5967224676
O 1.0465867782299998 1.47111922318 5.88342682504
O 3.69713560157 8.01503232542 1.14388158796
O 3.71681210541 1.4812919535400002 3.5988731944
O 1.12538282094 8.454879672150001 1.49316600372
O 8.3518854611 3.72196962527 3.24911041712
O 3.6201066203 1.02993767253 6.21737585768
O 1.14510879266 1.03044050005 3.26325179648
O 1.49995274856 1.12542199737 8.453216329229999
O 3.2570716770799994 8.35068596061 3.71732165367
O 6.22062175012 3.61738965499 1.02456336253
O 3.2648375192399994 1.14372985703 1.02780272957
O 8.45531674521 1.49626130214 1.1190370373999998
O 3.72545030677 3.25609265682 8.346894649959998
O 1.03103418343 6.22042297458 3.61487755704
O 1.03068245959 3.26445053646 1.1420948305999998
O 8.369606309059998 1.0366053078500002 7.988770046279998
O 1.1431036689 5.769515354730001 6.23282563288
O 5.8748825097 8.46154730747 3.2645601923199994
O 8.34988033734 8.461044479949999 6.21868425352
O 7.9950363814399985 8.366062982630002 1.0287197207699998
O 6.23791745292 1.1407990193900002 5.76461439633
O 3.27436737988 5.87409532501 8.45737268747
O 6.23015161076 8.347755122970002 8.454133320429998
O 1.03967238479 7.9952236778599985 8.3628990126
O 5.76953882323 6.235392323180001 1.13504140004
O 8.46395494657 3.27106200542 5.867058492959999
O 8.464306670410004 6.22703444354 8.3398412194
