40   
   
Al 0.98794804729 6.11930423678 -0.03090536894
In 4.51538572771 3.19408346322 4.92582221394
In 1.78260270087 1.48726446154 4.94798131418
In 3.7207310741300006 7.826123238459998 -0.05306446918
In 3.7856681715700007 1.48625118104 7.78628012961
In 1.74924567713 7.850759948159999 2.80702670345
Al 4.47602267527 6.11565875244 2.79922225641
In 1.0588911734300002 3.22135237676 7.79408457665
In 1.75555395524 7.9420827539799985 6.877085018889999
In 3.76945673446 1.38752033122 1.92927024997
Ga 1.04293945648 3.27146131926 1.93645395525
In 4.48207123322 6.05814176594 6.86990131361
In 0.97266104607 0.3185634818399999 9.91137037899
In 4.58558024383 9.035897706559998 4.89120013863
Ga 1.8486416944300004 4.94764202776 4.92329110703
Al 3.70959959547 4.40681916064 9.87927941059
O 4.585992395550001 6.2520935304 8.814406390269998
O 0.9605851737500002 3.0936426284 3.88353228507
O 3.687751752130001 1.58180112116 3.87479672539
O 1.85882581717 7.763935037639999 8.82314194995
O 2.9010381887900003 0.10452884088 6.22828220027
O 2.61649011411 9.219477055519999 1.22793188675
O 5.338462289290001 4.73083970188 1.23161116227
O 0.17906601361 4.593166194519999 6.22460292475
O 5.355379243030001 7.784427804259998 6.27215559554
O 0.16313937577 1.54031889654 1.3627536479000002
O 2.895695147470001 3.11690307994 1.3411376967000002
O 2.62282347133 6.20784362086 6.29377154674
O 0.10197529667 7.69799145904 1.16869334467
O 5.414672725430001 1.6253559445599997 6.12868060331
O 2.68737628697 3.06277755564 6.13772653387
O 2.8292717351300003 6.26056984796 1.15964741411
O 2.02131761389 1.61357023978 8.5797822928
O 3.52228900771 7.72994350582 3.58207091328
O 0.7898955611100001 6.246384192619999 3.60329890088
O 4.75371106049 3.09712955298 8.558554305199998
O 4.61375134915 0.0382525511 8.9096046316
O 0.93359646585 9.3080597889 3.9273191654
O 3.655308920870001 4.67058264294 3.93161918268
O 1.8920388941300004 4.6757296970599995 8.90530461432
