80   
   
Ga 1.72587873061 7.778381128959999 6.754394851439999
In 7.064135490610001 7.761607968959998 6.7260763064399995
In 3.68717378747 1.35379765736 1.89497034844
Ga 9.02543054747 1.3370244973599998 1.86665180344
Ga 1.02378825737 3.2042040007999995 1.90274057102
In 6.36204501737 3.1874308408 1.87442202602
Al 4.389264260710001 5.92797478552 6.74662462886
Al 9.727521020709998 5.91120162552 6.718306083859999
Al 0.97425486714 5.99724020012 -0.025880875235
In 6.312511627140001 5.98046704012 -0.054199420235
Ga 4.41836350286 3.12169849988 4.836913630234999
In 9.756620262859999 3.10492533988 4.808595085235
Al 1.74400401206 1.4522056914 4.856892631375
In 7.08226077206 1.4354325313999998 4.828574086374999
In 3.70047767794 7.700337288599998 9.696100643625002
In 9.038734437940002 7.683564128599999 9.667782098624999
Al 0.94949149086 0.30432007644 9.726512175120002
Ga 6.28774825086 0.28754691644 9.698193630119999
In 4.494886472499999 8.848155694999999 4.80699717884
In 9.8331432325 8.831382534999998 4.77867863384
In 1.8132489145 4.844221998199999 4.83507319374
Ga 7.1515056745 4.8274488382 4.806754648739999
In 3.63112904886 4.30825377324 9.69843616022
In 8.969385808859998 4.29148061324 9.67011761522
Ga 3.701985815590001 1.4466257797999995 7.642558979195
Ga 9.04024257559 1.4298526198 7.614240434194999
Ga 1.7204021000899998 7.69160177692 2.7603591142849995
Al 7.05865886009 7.674828616919998 2.732040569285
Ga 4.38424250939 5.987097989 2.7520828283449994
In 9.72249926939 5.970324829 2.7237642833449995
Ga 1.03814540629 3.15112956772 7.650835265135
In 6.37640216629 3.13435640772 7.622516720134999
O 4.49074843535 6.116654275080001 8.654934896315
O 9.82900519535 6.0998811150800005 8.626616351314999
O 0.9426345041700002 3.0286973890000004 3.813278827405
O 6.280891264170001 3.0119242290000003 3.784960282405
O 3.607157232270001 1.54304743436 3.804243446425
O 8.945413992270002 1.52627427436 3.775924901425
O 1.82622570725 7.602304229719999 8.663970277295
O 7.164482467249999 7.585531069719998 8.635651732294999
O 2.8354626968300005 0.0944013706 6.112541270315
O 8.17371945683 0.0776282106 6.084222725315
O 2.57053640973 9.03320723364 1.211917298845
O 7.908793169730002 9.01643407364 1.183598753845
O 5.22596155383 4.6295061686 1.213003185065
O 10.56421831383 4.6127330086 1.184684640065
O 0.18003755273 4.49810243564 6.111455384095
O 5.518294312729999 4.48132927564 6.083136839095
O 0.10986088177 7.545152858919998 1.1521952948249998
O 5.44811764177 7.5283796989199985 1.123876749825
O 5.29530841167 1.58191807684 6.016391906015
O 10.63356517167 1.5651449168399998 5.988073361014999
O 2.63055824397 2.99461675372 6.025680318675
O 7.96881500397 2.97784359372 5.997361773674999
O 2.77461104947 6.13245418204 1.142906882165
O 8.11286780947 6.11568102204 1.1145883371649998
O 5.24561337713 7.61942563532 6.16143500442
O 10.58387013713 7.602652475319998 6.13311645942
O 0.16131926919 1.50878784596 1.3383788541
O 5.49957602919 1.49201468596 1.3100603091
O 2.8352807406900005 3.05061591836 1.3188426584
O 8.173537500690001 3.03384275836 1.2905241134
O 2.57165190563 6.077597562920001 6.180971200119999
O 7.909908665629999 6.060824402920001 6.15265265512
O 1.97685741698 1.57326084812 8.420937892375
O 7.31511417698 1.55648768812 8.392619347374998
O 3.45372490326 7.570276184839998 3.521209963265
O 8.791981663260001 7.553503024839999 3.492891418265
O 0.78004773126 6.1196372096400005 3.540429869365
O 6.11830449126 6.10286404964 3.512111324365
O 4.65053458898 3.02389982332 8.401717986274999
O 9.98879134898 3.00712666332 8.373399441274998
O 4.50948806931 0.02534039996 8.74405853542
O 9.84774482931 0.00856723996 8.715739990419998
O 0.92462095669 9.12048172404 3.86054263558
O 6.26287771669 9.10370856404 3.83222409058
O 3.5795912215900003 4.570878103479999 3.86213458516
O 8.917847981589999 4.55410494348 3.83381604016
O 1.85451780441 4.57494402052 8.742466585839999
O 7.1927745644100005 4.55817086052 8.714148040839998
