80   
   
Ga 7.1625509875 2.3850735875 7.141612015
In 2.3861909025 7.1449863925 7.15865325
In 7.1451514275 7.1609322225 2.380829095
In 7.1545257075 7.1532823725 7.14904044
Al 2.3768166225000003 7.1526362425 2.390441905
In 7.1531767075 2.3927234375 2.37340067
In 2.3942161825 2.3767776075 7.151224825
Ga 2.3848419025000003 2.3844274575 2.38301348
Al 7.1543969265400005 4.44876470762 4.7607154221000005
Ga 2.3686625615400003 9.21632736262 0.0095453121
Al 7.143931208460001 5.10489095238 -0.0064856571
Al 4.76503371396 7.153479497299999 4.44550280104
In 0.01409846896 2.3693248823 9.21589853104
Al -0.00202618896 7.1441431377 5.103592353960001
Ga 4.45012417826 4.76446586336 7.15078630358
In 9.21710998326 0.01220290836 2.36553372358
Al 5.10664299174 -0.00261466836 7.14205053642
Ga 2.38497068346 5.08894512238 4.7713384979
In 7.151956488460001 0.33668216738 -0.0139140821
Al 2.3766878415400003 4.44811857762 0.0021168871
Ga 4.77433389604 2.3842303327 5.08655111896
Ga -0.01140046896 7.1517929877 0.33538100896
Al 0.00472418896 2.3769747323 4.4476871860400005
Ga 5.08924343174 4.77324396664 2.38126761642
Ga 0.33830818674 -0.01091064836 7.15166334642
Ga 4.44877517826 0.00390692836 2.37514653358
Ga 2.39299596346 0.32073633738 4.7639100729
In 4.7649596160400005 2.3918801827 0.31833977396
Al 0.32090862674 4.764947986639999 2.39088042642
Al 7.1463716465400005 9.21697349262 4.7681438471
In 4.774407993960001 7.1458296473 9.21371414604
Al 9.21845898326 4.77276184336 7.14117349358
O 5.9187584446 3.72898968187 6.2497824285900005
O 3.62545718748 8.490340052869998 8.05467246811
O 8.385419241120001 5.81989247173 1.47981121569
O 5.918784151800001 5.805052368529999 8.045868687609998
O 6.25343460392 5.917481036459999 3.72534051207
O 8.059554905 3.62421025814 8.486371796510001
O 1.4850138394000003 8.385318290059999 5.81775624949
O 8.05041567668 5.91726499034 5.80066624193
O 3.72993275735 6.252891568280001 5.91481094398
O 8.49075040267 8.057705979439998 3.61924977618
O 5.82182663793 1.48432190856 8.38266123322
O 5.80590922705 8.049355118719998 5.91341284662
O 3.6206091654 5.808720148129999 3.28227149141
O 5.913910422520001 1.04736977713 1.47738145189
O 1.15394836888 3.71781735827 8.05224270431
O 3.6205834582 3.73265746147 1.48618523239
O 3.28593300608 3.62022879354 5.80671340793
O 1.4798127050000005 5.91349957186 1.04568212349
O 8.0543537706 1.15239153994 3.71429767051
O 1.4889519333200003 3.62044483966 3.73138767807
O 5.80943485265 3.2848182617199995 3.61724297602
O 1.04861720733 1.48000385056 5.91280414382
O 3.717540972070001 8.05338792144 1.14939268678
O 3.73345838295 1.4883547112799995 3.61864107338
O 1.1330240796 8.49655233687 1.49861231859
O 8.392442992480001 3.73807709787 3.26941988811
O 3.6344839961200006 1.03573785673 6.2502069456900005
O 1.1491003467999998 1.03619745353 3.27984172761
O 1.50249935892 1.13332642146 8.49573624207
O 3.27382054 8.391772913139999 3.73520168651
O 6.2519996444000006 3.63305533506 1.03250366949
O 3.28073187168 1.14841007534 1.03463928193
O 8.49691856235 1.5006286132799995 1.12955836398
O 3.7398151576700007 3.2735513644399994 8.38964550618
O 1.03609227293 6.25188456356 3.63149112322
O 1.03622542205 3.280500203719999 1.14738588662
O 8.406343530400001 1.04115749313 8.03344160141
O 1.14692461752 5.799632732129999 6.26263403189
O 5.90488361388 8.501971973269999 3.28184697431
O 8.3902672632 8.50151237647 6.25221219239
O 8.036868251079998 8.404383408539998 1.03631767793
O 6.26554707 1.14593691686 5.79685223349
O 3.2873679656 5.904654494939999 8.499550250509998
O 6.258635738320001 8.389299754659998 8.497414638069998
O 1.04244904765 8.037081216719999 8.40249555602
O 5.79955245233 6.26415846556 1.14240841382
O 8.50327533707 3.2858252664399994 5.90056279678
O 8.50314218795 6.25720962628 8.38466803338
