80   
   
Al 10.84634732739 7.361285e-06 1.17508069572
Ga 10.846337557390001 3.0793786612850003 1.17509265072
Al 23.10790013739 1.6226285e-05 1.16309852572
Al 23.10789036739 3.079387526285 1.16311048072
Al -0.04530269739 -1.896285e-06 4.59816878428
Ga -0.0453124673899999 3.0793694037150003 4.59818073928
Al 12.216250112609998 6.968715e-06 4.58618661428
Ga 12.216240342609998 3.079378268715 4.5861985692800005
Ga 4.71556603739 1.539688578785 1.18107775822
Ga 4.715556267389999 4.619059878785 1.18108971322
Al 16.97711884739 1.5396974437850002 1.16909558822
Ga 16.977109077389997 4.619068743785 1.16910754322
Ga 6.085468822609999 1.539688186215 4.59218367678
Ga 6.085459052609999 4.619059486215 4.59219563178
Ga 18.34702163261 1.539697051215 4.58020150678
Ga 18.34701186261 4.619068351215001 4.5802134617800006
Ga 9.31005241673 1.539690773065 3.958597884430001
Al 9.31004264673 4.619062073065 3.95860983943
Al 21.57160522673 1.539699638065 3.946615714430001
Al 21.57159545673 4.619070938065 3.94662766943
Ga 1.4909824432699998 1.539685991935 1.81466355057
Ga 1.49097267327 4.619057291935 1.81467550557
In 13.75253525327 1.539694856935 1.80268138057
In 13.75252548327 4.619066156934999 1.80269333557
In 3.17928089673 6.90565e-07 3.96458299193
Al 3.17927112673 3.0793719905650003 3.96459494693
Ga 15.440833706729997 9.555565e-06 3.95260082193
Ga 15.44082393673 3.079380855565 3.952612776930001
In 7.621763733269998 4.774435e-06 1.80866648807
In 7.62175396327 3.0793760744350003 1.80867844307
Al 19.88331654327 1.3639435e-05 1.79668431807
Ga 19.88330677327 3.079384939435 1.79669627307
O 9.50206209921 5.845555e-06 2.51823697646
O 9.50205232921 3.079377145555 2.51824893146
O 21.76361490921 1.4710555e-05 2.50625480646
O 21.76360513921 3.079386010555 2.50626676146
O 1.29898253079 -3.80555e-07 3.25501250354
O 1.29897276079 3.079370919445 3.25502445854
O 13.560535340789999 8.484445e-06 3.24303033354
O 13.560525570789999 3.0793797844450004 3.24304228854
O 3.37128080921 1.539687063055 2.52423403896
O 3.37127103921 4.619058363054999 2.52424599396
O 15.632833619209997 1.539695928055 2.51225186896
O 15.632823849209997 4.619067228055 2.51226382396
O 7.4297540507900015 1.539689701945 3.24902739604
O 7.429744280790001 4.619061001945 3.2490393510399995
O 19.69130686079 1.5396985669449998 3.23704522604
O 19.69129709079 4.619069866945 3.2370571810399995
O 8.93854431615 4.376275e-06 5.13885105655
O 8.93853454615 3.079375676275 5.13886301155
O 21.20009712615 1.3241275e-05 5.1268688865500005
O 21.20008735615 3.079384541275 5.12688084155
O 1.86250031385 1.088725e-06 0.63439842345
O 1.86249054385 3.079372388725 0.63441037845
O 14.12405312385 9.953725e-06 0.62241625345
O 14.12404335385 3.0793812537250003 0.62242820845
O 2.8077630261499995 1.539685593775 5.14484811905
O 2.80775325615 4.619056893775 5.14486007405
O 15.06931583615 1.539694458775 5.13286594905
O 15.069306066149997 4.619065758775 5.13287790405
O 7.99327183385 1.539691171225 0.62841331595
O 7.99326206385 4.619062471225 0.62842527095
O 20.254824643850004 1.539700036225 0.61643114595
O 20.25481487385 4.619071336225 0.61644310095
O -1.0361162515 1.53968315926 4.29838516477
O -1.0361260215 4.61905445926 4.29839711977
O 11.2254365585 1.5396920242599998 4.28640299477
O 11.2254267885 4.61906332426 4.28641494977
O 11.8371511115 1.53969360574 1.47487627023
O 11.8371413415 4.619064905739999 1.47488822523
O 24.0987039215 1.53970247074 1.46289410023
O 24.0986941515 4.61907377074 1.46290605523
O 5.0946650385000005 1.94176e-06 4.29238810227
O 5.0946552685 3.0793732417600004 4.29240005727
O 17.3562178485 1.080676e-05 4.28040593227
O 17.356208078500003 3.07938210676 4.28041788727
O 5.706379591499999 3.52324e-06 1.4808613777300002
O 5.706369821499999 3.07937482324 1.48087333273
O 17.9679324015 1.238824e-05 1.46887920773
O 17.967922631500002 3.07938368824 1.46889116273
