40   
   
Ga 8.513043741297635 -0.0638894052104735 14.085559988558064
In 6.890661492452364 0.0081258214604735 2.3880812989419344
In 5.184709935 0.01843548 -0.059015475
Ga 9.477782227452364 1.5348839864604735 2.368790053941934
Al 4.293072292452364 1.5164485064604736 2.4278055289419345
In 5.13456841125 -0.01858786125 5.4912137625
In 1.6892377162023635 -0.0226507722895265 4.297173186441936
Al 8.596612947547637 -0.0021838364604735 4.835177926058066
Ga 2.52026537 1.47739371 7.381014405
Ga 7.704975304999999 1.4958291899999998 7.32199893
Ga 8.546471423797637 -0.0392071777104735 10.385407163558064
Ga 5.10114072875 -0.04327008875 9.1913665875
Ga 3.345047647547636 -0.0699837714604735 12.294499051058065
Al 1.6390961924523637 -0.0596741135395265 9.847402423941935
In 5.932168382547637 1.4567743935395263 12.275207806058065
Al 11.116878317547636 1.4752098735395265 12.216192331058064
O 3.51423734375 0.00414416905 1.2179214375
O 1.6063370636023635 -0.0838626964895265 13.473552192441934
O 5.99787324935 1.4698320074499998 1.1994018423
O 11.18216444575 1.60967072145 1.1412036867000002
O 8.629372076397635 0.0220047464895265 1.2090281575580657
O 6.72147179625 -0.06600211905 13.464658912500001
O 9.41207736065 1.52182637255 13.4445960177
O 4.22778616425 1.38198765855 13.502794173300002
O 6.926140356297635 -0.0164751474104735 6.112114838558066
O 5.15195080615 -0.00575310295 3.5671342935
O 9.409776261897635 1.4492126909895264 6.093595243358066
O 4.224647588297636 1.552180444989527 6.153428037758066
O 1.6718553213023637 -0.0354855305895265 6.221252655441935
O 10.267085538797636 0.0121074744895265 3.558241013558065
O 12.957691103197636 1.5999359660895265 3.538178118758065
O 7.773399906797636 1.4600972520895263 3.5963762743580654
O -0.0313763987976362 -0.0739654244895265 11.124339336441935
O 8.563853818697636 -0.0263724194104735 8.461327694558065
O 2.452259506802364 1.3917224139104734 11.105819741241934
O 7.636550703202364 1.5315611279104735 11.047621585641934
O 5.08375833385 -0.05610484705 11.1154460565
O 3.3095687837023635 -0.0453828025895265 8.570465511441935
O 6.000174348102364 1.5424456890104736 8.550402616641936
O 11.185303021702362 1.4394779350104734 8.490569822241934
