80   
   
Ga 7.141151865 2.3772617575 7.1143261625
Ga 2.37966526 7.1196679325 7.1349226375
Ga 7.120188585 7.138366522499999 2.3709340625
Ga 7.13185959 7.129412662499999 7.1229355125
Ga 2.367994255 7.128621792499999 2.3829211875
In 7.12948086 2.3862156175 2.3623247125
Ga 2.388957535 2.3675170275 7.1263132875
Ga 2.37728653 2.3764708875 2.3743118375
Ga 7.1313020997 4.43466787846 4.7420446767
Ga 2.3581444897 9.18602791346 0.0106397017
Ga 7.1183673453 5.089914261540001 -0.0087859017
Ga 4.74913329416 7.12962608998 4.4297922514
Ga 0.01790224416 2.35877659498 9.1851714764
Ga -0.00147377916 7.118663635019999 5.0880515736000005
Ga 4.43725934806 4.747802203359999 7.1254395245
Ga 9.18707494806 0.01434988836 2.3528415995
Al 5.09285005194 -0.00302341836 7.1151999255
Al 2.3778440203 5.07121567154 4.7552026733
Ga 7.1276596203 0.33776335654 -0.0173952517
In 2.3674367647 4.43387700846 0.0020303517
Al 4.76001282584 2.37625746002 5.0674550986
Ga -0.01314478416 7.127617495019999 0.3360501236
Ga 0.00623123916 2.36773045498 4.4331700264
In 5.07188677194 4.75808134664 2.3718078255
In 0.34065572194 -0.01276814836 7.1271870505
Al 4.43488061806 0.00460515836 2.3648287245
Ga 2.3871362953000004 0.31906476654 4.7465933233
In 4.74834182084 2.38521132002 0.3154536486
Ga 0.31969244194 4.74833661664 2.3837949505
Al 7.1220098247 9.18681878346 4.7506540267
Ga 4.76080429916 7.12067222998 9.1817937014
In 9.18945367806 4.75754693336 7.1134523995
O 5.9007667687100005 3.71651800859 6.2264943791
O 3.61480951319 8.46062479183 8.0276100943
O 8.356185383410002 5.80247692277 1.4720133007
O 5.90110363469 5.78508915181 8.017000600899998
O 6.232483265870001 5.89845028944 3.7110136199
O 8.03543963095 3.61212801352 8.4543754229
O 1.48054551105 8.355920147079999 5.7993502391
O 8.024396892129998 5.89821042496 5.7783790931
O 3.71849654746 6.23133957982 5.89440333345
O 8.461594899660001 8.0321909029 3.60469262805
O 5.80581447294 1.4787813699 8.35160835095
O 5.78695937994 8.02239702238 5.89241406255
O 3.60837935129 5.78936554141 3.2707529709
O 5.89433660681 1.0452587581699997 1.4696372557
O 1.15296073659 3.70340662723 8.0252340493
O 3.60804248531 3.72079439819 1.4802467491
O 3.27666285413 3.60743326056 5.786233730099999
O 1.47370648905 5.89375553648 1.0428719271
O 8.02860060895 1.1499634029199997 3.6978971109
O 1.48474922787 3.60767312504 3.7188682569
O 5.79064957254 3.27454397018 3.60284401655
O 1.04755122034 1.4736926471 5.89255472195
O 3.70333164706 8.0271021801 1.14563899905
O 3.72218674006 1.48348652762 3.60483328745
O 1.12760915871 8.46787804359 1.4950894041
O 8.36462511319 3.72717247683 3.2550121693
O 3.62495433341 1.03162742777 6.2273925257
O 1.14653057469 1.0321473768099998 3.2683769259
O 1.50125221587 1.12760079444 8.466392844899998
O 3.26228202095 8.36348804852 3.7229704479
O 6.230361111050001 3.62246783208 1.0267523141
O 3.26982383213 1.1452686499599998 1.0297554181
O 8.46831214746 1.49788726482 1.12180540845
O 3.73036384966 3.2613414079 8.36007185305
O 1.03265686294 6.2301414049 3.62020337595
O 1.03238631994 3.26945524738 1.14379038755
O 8.381536961290001 1.0380055064099998 8.002157945899999
O 1.1445210068099998 5.77871107317 6.2422351807
O 5.884191786590001 8.47425612223 3.2698548243
O 8.362615545309998 8.47373617319 6.2288704241
O 8.00789390413 8.378282755559999 1.0308545051
O 6.246864099050001 1.1423955014799998 5.7742769021
O 3.27878500895 5.883415717919999 8.470495035899999
O 6.23932228787 8.360614900039998 8.467491931899998
O 1.04083397254 8.00799628518 8.37544194155
O 5.77878227034 6.2445421421 1.13717549695
O 8.47648925706 3.2757421451 5.877043974049999
O 8.47675980006 6.23642830262 8.35345696245
