80   
   
Ga -0.019235715 -0.041905535 6.129925915
In -0.057707145 -0.125716605 18.389777745
Al 4.96519737 2.83612715 6.16458144
Ga 4.92672594 2.75231608 18.42443327
In 3.30352839 -0.041667885 6.1402495
Ga 3.26505696 -0.125478955 18.40010133
In 1.6424332650000002 2.8358894999999995 6.154257855
In 1.6039618350000002 2.75207843 18.414109685
Ga 0.0 0.0 0.0
Ga -0.03847143 -0.08381107 12.25985183
In 4.984433085 2.878032685 0.034655525
Al 4.945961655 2.794221615 12.294507355
In 3.322764105 0.00023765 0.010323585
Al 3.284292675 -0.08357342 12.270175415
In 1.6616689800000002 2.877795035 0.02433194
In 1.6231975500000002 2.793983965 12.28418377
In -0.0094265916285 1.897306194086 3.0777417778235003
In -0.0478980216285 1.813495124086 15.3375936078235
Ga -1.6705217166285 4.774863579086 3.0917501328235
Al -1.7089931466285 4.691052509086 15.351601962823501
In 3.3133375133715 1.897543844086 3.0880653628235
In 3.2748660833715 1.813732774086 15.3479171928235
In 1.6522423883714998 4.775101229086 3.1020737178235
Ga 1.6137709583715 4.691290159086 15.361925547823502
Al 1.6326241416285 0.8966777709139998 9.206441992176499
Al 1.5941527116285 0.8128667009139998 21.466293822176496
Ga -0.0284709833714997 3.774235155914 9.220450347176499
Ga -0.0669424133714997 3.690424085914 21.480302177176497
In 4.955388246628501 0.8969154209139998 9.216765577176501
Ga 4.9169168166285 0.8131043509139998 21.476617407176498
Ga 3.2942931216285007 3.774472805914 9.230773932176499
Ga 3.2558216916285008 3.690661735914 21.490625762176496
O -0.0157320590055 1.883569559713 5.0871314927605
O -0.0542034890055 1.7997584897129997 17.3469833227605
O -1.6768271840055 4.761126944713 5.1011398477605
O -1.7152986140055 4.677315874713 17.3609916777605
O 3.3070320459945 1.883807209713 5.0974550777605
O 3.2685606159945 1.7999961397129998 17.3573069077605
O 1.6459369209944998 4.761364594713 5.1114634327605
O 1.6074654909945 4.677553524713 17.3713152627605
O 1.6389296090055 0.9104144052869998 7.1970522772395
O 1.6004581790055 0.8266033352869998 19.456904107239502
O -0.0221655159944997 3.787971790287 7.211060632239499
O -0.0606369459944997 3.704160720287 19.4709124622395
O 4.9616937140055 0.9106520552869998 7.207375862239501
O 4.923222284005501 0.8268409852869998 19.4672276922395
O 3.3005985890055007 3.788209440287 7.221384217239499
O 3.2621271590055008 3.704398370287 19.481236047239506
O 1.6263186742515 0.8829411365409998 11.215831707113502
O 1.5878472442515 0.7991300665409998 23.4756835371135
O -0.0347764507484997 3.760498521541 11.229840062113501
O -0.0732478807484997 3.676687451541 23.489691892113502
O 4.9490827792515 0.8831787865409998 11.2261552921135
O 4.910611349251501 0.7993677165409998 23.4860071221135
O 3.2879876542515007 3.7607361715409993 11.240163647113501
O 3.2495162242515008 3.676925101541 23.5000154771135
O -0.0031211242515 1.911042828459 1.0683520628865
O -0.0415925542515 1.827231758459 13.3282038928865
O -1.6642162492515 4.788600213459 1.0823604178865
O -1.7026876792515 4.704789143459 13.342212247886499
O 3.3196429807485 1.911280478459 1.0786756478865
O 3.2811715507485 1.827469408459 13.3385274778865
O 1.6585478557484998 4.788837863459 1.0926840028865
O 1.6200764257485 4.705026793459 13.352535832886499
O -0.0096178575 -0.0209527675 3.0649629575
O -0.0480892875 -0.1047638375 15.3248147875
O 4.9748152275 2.8570799175 3.0996184825
O 4.9363437975 2.7732688475 15.3594703125
O 3.3131462475 -0.0207151175 3.0752865425
O 3.2746748175 -0.1045261875 15.3351383725
O 1.6520511225 2.8568422675 3.0892948975000003
O 1.6135796925 2.7730311974999995 15.3491467275
O -0.0288535725 -0.0628583025 9.1948888725
O -0.0673250025 -0.1466693725 21.4547407025
O 4.9555795125 2.8151743825 9.2295443975
O 4.9171080825 2.7313633125 21.4893962275
O 3.2939105325 -0.0626206525 9.2052124575
O 3.2554391025 -0.1464317225 21.4650642875
O 1.6328154075 2.8149367325 9.2192208125
O 1.5943439775 2.7311256625 21.4790726425
