80   
   
In 7.591900982499999 2.52572609 7.600877107499999
In 2.5296401825 7.590485265 7.6009317424999985
In 7.5959402075 7.59200935 2.5399360625
Al 7.593206302499999 7.589237445 7.603604962499999
In 2.5323740875 7.593257170000002 2.5372628425
In 7.5946348875 2.528497995 2.5372082075
In 2.5283348625 2.52697391 7.598203887499999
In 2.5310687675 2.529745815 2.5345349875
Al 7.5938318332399986 4.71454894786 5.07022109086
In 2.53430493824 9.78208002786 0.00660682586
Al 7.596743261759999 5.40595839714 0.00692317914
In 5.06297610054 7.59143579704 4.7261044173
In -0.00462924446 2.52640035704 9.784372242300002
In -0.00096183054 7.592306637960002 5.4120901677
In 4.716448086340001 5.05819052926 7.600722646039999
In 9.781442791340002 -0.00379674074 2.53699911104
In 5.40378775866 -0.00549052926 7.598358348959999
In 2.53044323676 5.40443431214 5.06791885914
In 7.595437941759998 0.34244704214 0.00419532414
In 2.53299961824 4.718568672860001 0.00387897086
In 5.06129896946 2.52754746296 5.4120355327
In 0.00177207446 7.59507854296 0.3484212677
In -0.00189533946 2.52917226204 4.7207033423
In 5.407826983660001 5.06079273074 2.53741730396
In 0.34022163866 -0.00424270926 7.595685128959999
In 4.717876671340001 -0.00254892074 2.53432589104
In 2.52913791676 0.34092295714 5.06519100414
In 5.06403287446 2.53031936796 0.3483666327
In 0.34426086366 5.062040550740001 2.53474408396
Al 7.595137153239999 9.77806030286 5.07294894586
In 5.06024219554 7.588663892040001 9.789773317300002
In 9.78001420634 5.05694270926 7.603395866039999
O 6.2762558656800005 3.95448184345 6.64898157221
O 3.8460214998 9.017549915770003 8.55436578801
O 8.9126132726 6.164295832830001 1.58789209139
O 6.27579703692 6.16113055795 8.55411042339
O 6.64287943253 6.274949310650001 3.96667888464
O 8.543419835049999 3.84122277493 9.03004354496
O 1.5788000963500002 8.908014484670002 6.17318378964
O 8.54558831107 6.27327157975 6.17544365576
O 3.95803124348 6.638913940320001 6.2846188398
O 9.0234004382 8.5428769042 3.85775666128
O 6.1630191212000005 1.5734171452 8.916164336719998
O 6.16623687212 8.54225016028 6.2868100372
O 3.84801920432 6.16450141655 3.4891583777899995
O 6.2782535702 1.10143334423 1.58377416199
O 1.2116617974 3.95468742717 8.550247858609998
O 3.84847803308 3.95785270205 1.58402952661
O 3.48139563747 3.84403394935 6.171461065359999
O 1.58085523495 6.277760485070001 1.10809640504
O 8.54547497365 1.21096877533 3.96495616036
O 1.57868675893 3.84571168025 3.96269629424
O 6.16624382652 3.48006931968 3.8535211102
O 1.1008746318 1.5761063558 6.28038328872
O 3.9612559488 8.545566114799998 1.22197561328
O 3.95803819788 1.57673309972 3.8513299128
O 1.21672897068 9.02201292345 1.58536730721
O 8.9110162048 3.95556264577 3.4906422530099994
O 3.8450079276 1.09926039283 6.64615991639
O 1.21365950192 1.10163892795 3.4850404483899995
O 1.57527408753 1.20991387065 9.02494670964
O 3.48389294005 8.908753854930001 3.96642927996
O 6.64379480135 3.84602721467 1.10946025464
O 3.48345077607 1.21377994975 1.10637368076
O 9.02302594848 1.57692667032 1.2208953048
O 3.9557950932 3.4778414641999995 8.916024486279998
O 1.1034922262 6.640948225200001 3.85255007172
O 1.10409933712 3.4827585302799995 1.2177400622
O 8.907546099320001 1.09697033655 8.55277264279
O 1.2132588652 6.16342061423 6.64749769699
O 6.279267142399999 9.01972286717 3.4919800336099995
O 8.910615568079999 9.01734433205 6.65309950161
O 8.54900098247 8.909069389350002 1.11319324036
O 6.64038212995 1.21022940507 6.17171067004
O 3.48048026865 6.272956045330001 9.02867969536
O 6.640824293930001 8.905203310250004 9.03176626924
O 1.10124912152 8.542056589680001 8.9172446452
O 6.1684799768000005 6.641141795800001 1.2221154637199998
O 9.0207828438 3.4780350347999995 6.28558987828
O 9.020175732879999 6.63622472972 8.9203998878
