80   
   
Ga 7.09262527 2.3621486675 7.0667172425
Al 2.36284193 7.072361912500001 7.0865847375
In 7.071679065 7.090701392500001 2.3548729375
Al 7.083062685 7.082233702500001 7.0749321075
Al 2.35145831 7.080829602500001 2.3665255675
In 7.08124165 2.3706163575000003 2.3466580725
Ga 2.3724045149999995 2.3522768775 7.0783698725
In 2.361020895 2.3607445675000003 2.3583107025
Al 7.08280242328 4.4054592476200005 4.71023647918
Ga 2.34163546328 9.12414018262 0.01004480418
Al 7.070118291719999 5.0558585023800005 -0.00870546918
Ga 4.71648641134 7.08210745542 4.39976481394
Al 0.01721186134 2.3436829404200004 9.12326174894
Al -0.00218617134 7.07108405958 5.05334549106
Ga 4.40675858866 4.716584008280001 7.07744336884
In 9.12515830866 0.01483845328 2.33751670384
Ga 5.05827119634 -0.00215846328 7.06764374616
In 2.36128115672 5.037519022380001 4.72300633082
Al 7.07968087672 0.3357734673800001 -0.01692033418
Al 2.35119804828 4.40405514762 0.00182993918
Ga 4.72759716866 2.36087081458 5.03347799606
Ga -0.01356979134 7.07955174958 0.33328632106
Al 0.00582824134 2.35215063042 4.40320257894
Al 5.037324991339999 4.72639426172 2.35579944116
In 0.33805044134 -0.01203025328 7.07929637616
In 4.40493755366 0.00496666328 2.34916933384
Ga 2.37084374172 0.3174339873800001 4.71479146582
Al 4.71621354866 2.3693385045800004 0.31341882606
Ga 0.31710423634 4.71652247172 2.36745207116
Ga 7.07323983828 9.125544282620002 4.71845134418
Ga 4.727870031339999 7.07363976542 9.119823983940002
Ga 9.12697934366 4.726455798280001 7.06579073884
O 5.86053110417 3.69223790769 6.18469239427
O 3.589542797889999 8.404400632050002 7.973242769589999
O 8.29949298971 5.76379600375 1.46215553781
O 5.86064205823 5.74701113151 7.96301632333
O 6.189974016 5.8592354983 3.68598445298
O 7.980750680679998 3.58883878454 8.397719098899998
O 1.46974397512 8.30011601366 5.7598546109
O 7.9697402782 5.8592553785 5.73954886222
O 3.69278220769 6.1899713701 5.85453891702
O 8.40394329313 7.978659624459999 3.58034667466
O 5.76628052427 1.46978723674 8.295674273739998
O 5.747202924909999 7.9690274437 5.85254715958
O 3.5835524758299995 5.75074036231 3.24855041573
O 5.85454078211 1.03857763795 1.46000004041
O 1.14459059029 3.6791822662500007 7.971087272189998
O 3.58344152177 3.69596713849 1.47022648667
O 3.254109564 3.5837427717 5.74725835702
O 1.46333289932 5.854139485459999 1.0355237111
O 7.974339604879998 1.14286225634 3.6733881991
O 1.4743433018 3.5837228915000003 3.69369394778
O 5.75130137231 3.2530068999 3.57870389298
O 1.04014028687 1.46431864554 5.85289613534
O 3.67780305573 7.97319103326 1.13756853626
O 3.69688065509 1.4739508263 3.58069565042
O 1.11936414417 8.41091884269 1.48450071927
O 8.30794251789 3.70265507705 3.23331610459
O 3.60021843971 1.02537148875 6.18565247281
O 1.13860026823 1.02552199651 3.24639491833
O 1.490699466 1.1208109833 8.409481387979998
O 3.23958372068 8.30751971954 3.6975274239
O 6.18814369512 3.5983704586600003 1.0199279459
O 3.2476984882 1.1377662435 1.02292745722
O 8.41118192769 1.4882258151 1.11461225202
O 3.70466874313 3.2402351094600004 8.303843609659998
O 1.02511356427 6.188468171740001 3.59548259874
O 1.02516113491 3.2475383087 1.13592575458
O 8.324719435829998 1.03205942731 7.948742090729999
O 1.13614106211 5.74032319295 6.19992670541
O 5.84386514029 8.41760678125 3.24759033719
O 8.30548331177 8.417456273490004 6.18684789167
O 7.953384113999999 8.3221672867 1.02376142202
O 6.20449985932 1.13545855046 5.7357153861
O 3.25593988488 5.84460781134 8.4133148641
O 6.196385091800001 8.305212026500001 8.410315352779998
O 1.03290165231 7.9547524549 8.31863055798
O 5.73941483687 6.202743160540002 1.12939920034
O 8.41897001573 3.25451009826 5.83776021126
O 8.41892244509 6.195439961300001 8.29731705542
