80   
   
In -0.00022305 -0.0652360575 6.250482415
In -0.00066915 -0.1957081725 18.751447245
In 5.173540015 2.9650487275 6.281693154999999
Al 5.173093915 2.8345766125000003 18.782657985
Al 3.46101149 -0.0433890275 6.25113703
In 3.46056539 -0.1738611425 18.75210186
In 1.712305475 2.9432016975 6.28103854
In 1.711859375 2.8127295825000003 18.78200337
In 0.0 0.0 0.0
In -0.0004461 -0.130472115 12.50096483
In 5.173763065 3.030284785 0.03121074
In 5.173316965000001 2.89981267 12.53217557
In 3.46123454 0.02184703 0.000654615
In 3.46078844 -0.108625085 12.501619445
In 1.712528525 3.008437755 0.030556125
In 1.712082425 2.87796564 12.531520955
In -0.0121694824169999 1.965524963634 3.1453917372455
In -0.0126155824169999 1.835052848634 15.646356567245501
Al -1.7608754974170002 4.9521156886340005 3.1752932472455
In -1.7613215974170002 4.821643573634001 15.676258077245501
Al 3.449065057583 1.987371993634 3.1460463522455
In 3.448618957583 1.856899878634 15.647011182245501
Al 1.700359042583 4.9739627186340005 3.1759478622455
Al 1.699912942583 4.843490603634001 15.676912692245502
In 1.724251907417 0.912440676366 9.3861292177545
In 1.723805807417 0.7819685613659999 21.887094047754495
In -0.0244541075830001 3.899031401366 9.4160307277545
In -0.0249002075830001 3.768559286366 21.916995557754497
In 5.185486447417 0.934287706366 9.3867838327545
In 5.185040347417001 0.8038155913659999 21.887748662754497
In 3.436780432417 3.920878431366 9.4166853427545
In 3.436334332417 3.790406316366 21.917650172754495
O -0.0122425982069999 1.9441405839855 5.1942998728825
O -0.0126886982069999 1.8136684689855 17.695264702882497
O -1.7609486132070002 4.930731308985501 5.2242013828825
O -1.7613947132070005 4.8002591939855 17.7251662128825
O 3.448991941793 1.9659876139855 5.1949544878825
O 3.448545841793 1.8355154989855 17.6959193178825
O 1.700285926793 4.952578338985501 5.224855997882499
O 1.699839826793 4.8221062239855 17.725820827882497
O 1.7243250232069998 0.9338250560145 7.337221082117499
O 1.7238789232069998 0.8033529410144999 19.8381859121175
O -0.0243809917930001 3.9204157810145 7.367122592117499
O -0.0248270917930001 3.7899436660145 19.8680874221175
O 5.185559563207001 0.9556720860145 7.337875697117499
O 5.185113463207 0.8251999710144999 19.8388405271175
O 3.4368535482070004 3.9422628110145 7.367777207117498
O 3.4364074482070004 3.8117906960145 19.868742037117496
O 1.724178791627 0.8910562967175 11.4350373533915
O 1.723732691627 0.7605841817175 23.936002183391494
O -0.0245272233730001 3.8776470217175 11.4649388633915
O -0.0249733233730001 3.7471749067175 23.965903693391493
O 5.185413331627 0.9129033267175 11.4356919683915
O 5.184967231627001 0.7824312117175 23.936656798391493
O 3.4367073166270004 3.8994940517175 11.4655934783915
O 3.4362612166270003 3.7690219367175 23.966558308391495
O -0.0120963666269999 1.9869093432825 1.0964836016084998
O -0.0125424666269999 1.8564372282825 13.5974484316085
O -1.7608023816270004 4.9735000682825 1.1263851116085
O -1.7612484816270004 4.8430279532825 13.627349941608498
O 3.449138173373 2.0087563732825 1.0971382166085
O 3.448692073373 1.8782842582825 13.598103046608498
O 1.7004321583729998 4.9953470982825 1.1270397266085
O 1.6999860583729998 4.8648749832825 13.628004556608499
O -0.000111525 -0.03261802875 3.1252412075
O -0.000557625 -0.16309014375 15.6262060375
O 5.17365154 2.99766675625 3.1564519475
O 5.17320544 2.86719464125 15.657416777499996
O 3.461123015 -0.01077099875 3.1258958225
O 3.460676915 -0.14124311375 15.6268606525
O 1.712417 2.97581972625 3.1557973325
O 1.7119709 2.84534761125 15.6567621625
O -0.000334575 -0.09785408625 9.3757236225
O -0.000780675 -0.22832620125 21.8766884525
O 5.17342849 2.93243069875 9.4069343625
O 5.1729823900000005 2.8019585837500003 21.9078991925
O 3.460899965 -0.07600705625 9.3763782375
O 3.460453865 -0.20647917125 21.8773430675
O 1.71219395 2.91058366875 9.4062797475
O 1.71174785 2.7801115537500003 21.9072445775
