40   
   
Ga 8.377995911421158 -0.0425701211162026 13.88624473174059
Ga 5.10368521 0.016413475 -0.04665831
Al 9.329754013578842 1.5108894398662025 2.3505949182594086
Ga 4.226068803578841 1.4944759648662025 2.397253228259409
Ga 5.053541095 -0.01094883875 5.41751898
Ga 1.6622274585788426 -0.0158106413837974 4.23436294825941
In -0.06685882 -0.036483085 7.28556972
Ga 8.461569436421158 0.0030337351337974 4.77928258174059
Al 2.48026782 1.46468275 7.2698524299999985
Al 7.58395303 1.481096225 7.223194119999999
Ga 8.411425321421158 -0.0243285786162026 10.24345987174059
Ga 5.020111685 -0.02919038125 9.06030384
In 3.291025406421157 -0.0498628248662026 12.111510611740588
Ga 1.6120833435788426 -0.0431729551337974 9.69854023825941
Ga 5.838152046421158 1.4513030101337974 12.09579332174059
Ga 10.941837256421156 1.4677164851337974 12.04913501174059
O 3.4591399434000003 0.00495903855 1.2068192016
O 1.5793225217788427 -0.0610496667837974 13.268469401059408
O 5.904381517800001 1.44607824015 1.1917306032
O 11.0076894506 1.58192844295 1.1456812424
O 8.494330258221158 0.0209104467837974 1.2093534189405906
O 6.6145128366 -0.04509825855 13.2710036184
O 9.2635245422 1.51611420985 13.2546576368
O 4.160216609400001 1.38026400705 13.3007069976
O 6.817024169821156 -0.0084207013162026 6.03276009334059
O 5.0709243882 -0.00146323665 3.5232708528
O 9.262265744221157 1.4326985002837973 6.017671494940592
O 4.158203257021157 1.5357217530837974 6.0649387541405915
O 1.6448441653788426 -0.0252962434837974 6.12861107545941
O 10.10611470302116 0.0144881715837974 3.5258050701405903
O 12.75512640862116 1.5757006399837972 3.5094590885405905
O 7.651818475821158 1.4398504371837972 3.55550844934059
O -0.0324619230211574 -0.0546273915837974 10.952017749859408
O 8.428808614621158 -0.0148429765162026 8.34921174454059
O 2.412779651378843 1.3864918100162025 10.936929151459408
O 7.516087584178843 1.5223420128162024 10.890879790659408
O 5.0027283918 -0.03867598335 10.9545519672
O 3.256628610178842 -0.0317185186837974 8.44506272665941
O 5.905640315778843 1.5294939497162026 8.42871674505941
O 11.009702802978845 1.4264706969162024 8.38144948585941
