30   
   
Al -0.0014261106162 0.002673315208 2.00521369693028
Ga -0.0062491356162 0.011714315208 8.78673238193028
Al -0.0082199393838 0.015408684792 11.557823673069722
In -0.0033969143838 0.006367684792 4.77630498806972
Al 2.4988824179366733 1.4716187707832271 6.5257905284193765
In 2.494059392936673 1.4806597707832272 13.307309213419375
Al 2.5017346391690727 1.4662721403672272 2.5153631345588163
Ga 2.4969116141690733 1.4753131403672273 9.296881819558816
Ga -0.0230715791690728 2.914096079632773 11.043547675441184
Al -0.0182485541690728 2.9050550796327728 4.262028990441184
Ga -0.0202193579366728 2.9087494492167734 7.033120281580625
Al -0.0153963329366728 2.899708449216773 0.2516015965806239
O 3.4812306133180004 0.0228798953116 3.3927152824448
O 0.7599068664396001 1.3409505063592002 3.3894951295784
O -1.7600629072576 3.0120173183292005 3.3859410554768
O 1.7187561935604003 3.0394177136408005 10.1694156804216
O -0.7835364827424001 1.3418827116708003 10.1701499345232
O 1.5313857866820002 0.0216702946884 10.1731419075552
O 0.9592766918708728 1.4653571608868272 7.910472293933896
O 3.2602153949924726 2.809895961934428 7.910071961067496
O 3.2741989612952733 0.1451447439044272 7.913464266965896
O 1.740401662113273 0.1279949492160272 1.131081701910696
O 1.7264180958104731 2.7927461672460274 1.127689396012296
O 4.0413403652348725 1.472533750263627 1.130681369044296
O -1.5626773052348728 2.9078344697363727 12.428229440955706
O 0.738261397886727 4.2523732707839725 12.427829108089304
O 0.7522449641895272 1.5876220527539733 12.431221413987704
O -0.7815523349924728 1.570472258065573 5.648838848932504
O -0.7955359012952729 4.235223476095574 5.6454465430341045
O 1.5193863681291269 2.9150110591131733 5.648438516066104
