40   
   
In 9.421367453573934 0.0781516372222387 14.401549999187683
Al 5.162838235 0.006818945 0.34879619
In 9.592325723926065 1.5480890602777613 3.036156282062316
Al 4.429487488926065 1.5412701152777613 2.6873600920623155
Ga 5.4823918825 0.0329528825 5.75670956375
Al 1.9694878414260648 0.0225993777777613 4.322420293312316
Ga 0.42607153 0.03484525 7.210551165
Al 8.888778041073934 0.0345950747222387 5.388361042937684
Ga 2.99258906 1.5622273 7.378128754999999
In 8.155427294999999 1.569046245 7.726924945
Ga 9.208331688573933 0.0607290122222387 10.796274416687684
Ga 5.6954276475 0.0503755075 9.36198514625
Ga 4.152011336073934 0.0626213797222387 12.250116017937684
In 2.2890414889260646 0.0487333152777613 9.730333667062316
In 6.7185288660739335 1.5900034297222387 12.417693607937684
Al 11.881367101073934 1.5968223747222388 12.766489797937686
O 3.5831621599 0.0105605751 1.46297510725
O 2.497816538626065 0.0658074877777613 13.263503737912316
O 6.0470189887 1.4768473430999998 1.62384959365
O 11.2086650967 1.6055840943 1.97210014325
O 8.680002991373934 0.0175209022222387 1.855190972087684
O 7.5946573701 0.0727678149 13.65571960275
O 10.263835601299999 1.6612451469 13.83000029635
O 5.1021894933 1.5325083957 13.48174974675
O 7.309101965973933 0.0383367048222387 6.5025399601876845
O 5.3716132847 0.0238931175 3.88196626085
O 9.772958794773935 1.5046234728222383 6.663414446587685
O 4.6089284327739355 1.6197223340222386 6.314072616187684
O 2.080266439226065 0.0316591427777613 6.197163596212316
O 10.468454116173934 0.0308534446222387 4.274182125687684
O 13.137632347373934 1.619330776622239 4.448462819287684
O 7.975986239373935 1.4905940254222383 4.100212269687685
O 0.709365413826065 0.0524749453777613 10.844512584312318
O 9.097553090773932 0.0516692472222387 8.921531113787683
O 3.173222242626065 1.5187617133777611 11.005387070712315
O 8.334868350626065 1.6474984645777613 11.353637620312316
O 5.8062062453 0.0594352725 11.23672844915
O 3.8687175640260647 0.0449916851777613 8.616154749812317
O 6.537895795226065 1.6334690171777613 8.790435443412317
O 11.701926157226064 1.5183701559777607 9.139777273812317
