80   
   
Al 6.79559062 2.26625061 6.7567114975
Al 2.26250372 6.76962832 6.783570737500001
Al 6.764197495 6.794370715 2.2482521525
Al 6.780982215 6.784392705 6.7665147375000005
Al 2.245719 6.77960633 2.2653081525000003
Al 6.7788059 2.27622862 2.2384489125
Al 2.2771121250000004 2.2514862250000003 6.773767497500001
Al 2.2603274050000004 2.261464235 2.2555049125
Al 6.780887429040001 4.22307700004 4.501815204680001
Al 2.23101580904 8.73643272004 0.01041185968
Al 6.7621159659600005 4.84752233496 -0.01511413968
Al 4.51220924654 6.782678022180001 4.20866958922
Al 0.02512387654 2.23979353218 8.73418493422
Ga -0.00398652654 6.76655662782 4.840209300780001
Ga 4.22179063234 4.5169354868200005 6.7713009255
Al 8.738092812339998 0.02353578682 2.2261791005
Al 4.8509121126600006 0.00080134818 6.759178069500001
Ga 2.26042219096 4.822779939959999 4.52020444532
Al 6.77672437096 0.32938023996 -0.02491737968
Ga 2.24562421404 4.21829062504 0.00060861968
Al 4.52910037346 2.26317891782 4.81335006078
Al -0.02077124654 6.77653463782 0.3219467157800001
Al 0.00833915654 2.24977154218 4.21592234922
Al 4.81951898766 4.528921453180001 2.2507187245000004
Al 0.3324336176600001 -0.01396303682 6.776234069500001
Al 4.2196143173400005 0.00877140182 2.2432351005
Al 2.27503059596 0.30463784496 4.510401205320001
Al 4.51231565346 2.27315692782 0.2950874757800001
Al 0.30104049266 4.51415706818 2.2677747245
Al 6.76627902404 8.74121909504 4.511618444680001
Al 4.52899396654 6.7727000121800005 8.72693217422
Al 8.740269127339998 4.53169987182 6.754244925500001
O 5.61351111373 3.5384038065700003 5.914477205200001
O 3.43634408585 8.04570726501 7.63133405716
O 7.93996594655 5.52596925019 1.39161971284
O 5.613452903870001 5.5045620282300005 7.6176181498
O 5.9232550142800005 5.6140642671 3.5230598870700005
O 7.6459996827999985 3.44092946026 8.030203860870001
O 1.4044982866 7.94438335914 5.515176058930001
O 7.629521066319999 5.6152652635 5.48660931813
O 3.53509700853 5.92697544531 5.602169664280001
O 8.040026077649998 7.645350702829998 3.4200336417200004
O 5.52849009175 1.41008205697 7.93442655248
O 5.499660872070001 7.632234144889998 5.5984192665200005
O 3.42779850627 5.50745313343 3.1075424448
O 5.60496553415 1.0001496749899998 1.3906855928400002
O 1.1013436734500002 3.5198876898100004 7.630399937160002
O 3.42785671613 3.541294911770001 1.4044015002
O 3.1180546057200003 3.4317926729 5.49895976293
O 1.3953099372 5.60492747974 0.99181578913
O 7.6368113334 1.1014735808599998 3.5068435910700004
O 1.41178855368 3.4305916765 3.5354103318700005
O 5.50621261147 3.11888149469 3.4198499857200004
O 1.00128354235 1.40050623717 5.601986008280001
O 3.51281952825 7.635774883029998 1.08759309752
O 3.5416487479300005 1.41362279511 3.42360038348
O 1.06363949373 8.05175952657 1.4230738602000002
O 7.95264626585 3.5523075650100004 3.08621223216
O 3.45288057655 0.98308476019 5.91713505784
O 1.09279809387 0.98163355823 3.1066083248000003
O 1.4361696442799998 1.0711797771 8.04857523207
O 3.0961280628 7.95428518026 3.5388005158700007
O 5.9208004666 3.4509836591400003 0.97005423393
O 3.10886625632 1.0923367935 0.97559949313
O 8.05139918853 1.43357574531 1.05704783928
O 3.5529407076500004 3.10246621283 7.94554898672
O 0.9786184717500002 5.92343777697 3.4430232074800005
O 0.97900606207 3.10930567489 1.08740944152
O 7.97767012627 0.99409741343 7.5989457898
O 1.0886633541500002 5.49354937499 5.93580741784
O 5.58842904345 8.06277217981 3.10488459216
O 7.94851152613 8.06422338177 5.915411325200001
O 7.60513997572 7.9746771629 0.97344441793
O 5.9451815572 1.09157175974 5.4832191341300005
O 3.1205091534 5.59487328086 8.05196541607
O 5.93244336368 7.9535201465 8.046420156870001
O 0.98991043147 7.612281194689999 7.96497181072
O 5.48836891235 5.943390727170001 1.07647066328
O 8.06269114825 3.12241916303 5.57899644252
O 8.06230355793 5.93655126511 7.93461020848
