40   
   
Al 8.483430732673732 -0.0523278156680349 14.00729914758064
Ga 6.857799527326269 0.0109531431680349 2.374033943669359
Al 5.15815272 0.019218065 -0.05943405
Al 9.43139470232627 1.5296621131680348 2.353405258669359
In 4.273241982326269 1.5104440481680348 2.412839308669359
In 5.1137434200000005 -0.0137915575 5.46044436375
In 1.6848437073262688 -0.0192681293319651 4.273427464919359
In 8.557446232673732 0.0026882218319651 4.80750179133064
Ga 2.514382775 1.47469614 7.3392092
Al 7.672535495 1.493914205 7.27977515
In 8.513036932673732 -0.0303214006680349 10.32738020508064
Ga 5.084137220000001 -0.0357979725 9.14036330625
Al 3.3400811126737318 -0.0605426731680349 12.22677372633064
Ga 1.6404344073262689 -0.0522777518319651 9.79330587866936
Al 5.913676287673731 1.4581662968319653 12.20614504133064
Ga 11.071829007673731 1.4773843618319653 12.14671099133064
O 3.4974777416000005 0.0055861031 1.21075728645
O 1.6114203313262687 -0.0738440385319651 13.39962644231936
O 5.9681291096 1.4635467143 1.1909537488500002
O 11.1258433348 1.6034927742999998 1.1322467660500002
O 8.58646030867373 0.0242545085319651 1.2011812276806413
O 6.7004028984 -0.0551756331 13.39005038355
O 9.3769418804 1.5242816957 13.36859655115
O 4.2192276552 1.3843356357000005 13.42730353395
O 6.896771254273731 -0.0109437400680349 6.077693127780641
O 5.129138644 -0.0023482217 3.54688651365
O 9.367422622273729 1.4470168711319653 6.0578895901806415
O 4.208831407473731 1.5485268011319653 6.118050707380641
O 1.6694484833262688 -0.0307114651319651 6.186985315019359
O 10.218121211073731 0.0163201837319651 3.537310454880641
O 12.894660193073731 1.595777512531965 3.5158566224806407
O 7.736945967873731 1.455831452531965 3.5745636052806407
O -0.0202405710737312 -0.0659097137319651 11.063497215119359
O 8.52843215667373 -0.0188780648680349 8.41382235498064
O 2.4504107969262687 1.392050897468035 11.04369367751936
O 7.608125022126269 1.531996957468035 10.984986694719359
O 5.068741996 -0.0472413083 11.05392115635
O 3.301109385726269 -0.0386457899319651 8.52311454221936
O 5.977648367726268 1.540811538868035 8.50166070981936
O 11.136239582526269 1.439301608868035 8.44149959261936
