40   
   
Ga -0.0573894385791844 3.522616691766892 14.300162924277537
In 1.5394935697057723 2.64158751826441 2.499249133056361
In 3.052896979705772 -0.0270269567355899 2.505158053056361
Ga -1.5281147902942276 2.6651683132644095 2.480242513056361
In 3.048108298873412 1.739881374968698 5.615243492666103
Ga -0.0257449152942276 -0.0060307829855899 4.350764970556361
Ga -1.543937006126588 4.429492023718698 7.454941490166102
In -0.0305335961265883 1.7608775487186985 7.460850410166103
Ga 1.523671353873412 4.405911228718698 7.473948110166104
Ga -0.0022217635791844 3.535539798016892 4.977095236777536
Al -0.0353223685791844 3.527785934266892 10.570935849277534
Ga 3.026041228873412 1.7347121324686985 9.344470567666104
Ga 4.534655866420816 0.8330060430168916 12.460464926777535
Ga 3.0212524564208154 3.501620518016892 12.454556006777535
In 1.467047506420816 0.8565868380168916 12.441458306777534
Ga -0.0588455202942276 -0.0137846467355899 9.94460558305636
O 4.539629866473413 0.8843752098686982 1.2973130584661037
O 3.086762592873412 3.4462451058686985 1.2916404952661036
O 1.594725840873412 0.9070127730686982 1.2790667032661036
O -0.0804712488942276 -0.0188505043855899 13.59924811655636
O 0.0194039650208156 3.540605655666892 1.3224527032775353
O 1.5345196612734116 2.590218297568698 13.662401001866103
O 2.987386934873412 0.0283484015686982 13.668073565066106
O 4.479423686873412 2.5675807343686974 13.680647357066103
O 1.4561991990208158 2.672279769166892 6.253005415077535
O 0.0033319254208161 5.234149665166892 6.247332851877535
O -1.4887048265791842 2.694917332366892 6.234759059877535
O 3.059583175273412 1.7425693810686982 3.676045413666104
O -0.0372197916942276 -0.0087187890855899 6.289963049556361
O -1.4606427261791843 4.398799826866892 3.701185058477535
O -0.0077754525791843 1.836929930866892 3.706857621677535
O 1.4842612994208155 4.376162263666892 3.719431413677535
O -1.6272313776942275 4.460184274414409 11.208697921356361
O -0.0532918312942276 1.6848252204144103 11.21484319815636
O 1.5630813167057722 4.435660247614409 11.22846480615636
O -0.0238474921791844 3.530473940366892 8.631737770277534
O 3.014566352473412 1.7320241263686982 11.283668646666102
O 4.617950237105772 0.8023137921144101 8.706708644756361
O 3.044010690705772 3.5776728461144107 8.700563367956361
O 1.4276375427057726 0.8268378189144101 8.686941759956364
