40   
   
Al 8.289156904716108 -0.0078853333222202 13.651462225474985
Al 5.024013565 0.01876123 -0.047914025
Al 9.190591451533889 1.49522382832222 2.304440545775016
Ga 4.16657788653389 1.4764625983222202 2.352354570775016
Al 4.99106612875 0.00344008 5.32521079375
Ga 1.6490454377838908 -0.0056627066777798 4.163125787025017
Al -0.043929915 -0.0204282 7.164166425
Al 8.344069298466108 0.0176499166777798 4.696254194224984
Ga 2.462620055 1.456590055 7.144436815000001
Al 7.48663362 1.475351285 7.096522790000001
In 8.311121862216108 0.0023287666777798 10.069379012974984
Ga 4.96910117125 -0.00677402 8.90729400625
Al 3.2761258184661086 -0.0215395133222202 11.908334644224984
In 1.6160980015338908 -0.0209838566777798 9.536250605775017
Ga 5.782675788466109 1.4554787416777797 11.888605034224986
Al 10.806689353466108 1.4742399716777796 11.840691009224985
O 3.4088611386500003 0.0092848424 1.1853267552500002
O 1.594572343183891 -0.0309936746777798 13.046692154025017
O 5.815149109849999 1.4272223672 1.16638632965
O 10.83872612985 1.5633946084 1.11881049685
O 8.365594956816107 0.0276597346777798 1.185812645974984
O 6.55130616135 -0.0126187824 13.04717804475
O 9.15811813015 1.5234802028 13.02665925035
O 4.13454111015 1.3873079616 13.07423508315
O 6.728916872116108 0.0081735290777798 5.929494974474984
O 5.00248790665 0.008751412 3.46252752325
O 9.135204843316108 1.4261110538777797 5.910554548874984
O 4.110754733316109 1.5247608350777797 5.958806766074984
O 1.6376236598838907 -0.0109740386777798 6.0258090575250165
O 9.959221724816109 0.0271263042777798 3.463013413974984
O 12.56603369361611 1.5632252894777796 3.442494619574984
O 7.542456673616109 1.4270530482777797 3.490070452374984
O 0.000945575183891 -0.0304602442777798 10.769491386025017
O 8.322543640116107 0.0076400986777798 8.206695742474984
O 2.4072335463838908 1.3874772805222202 10.750550960425016
O 7.430810566383893 1.5236495217222203 10.702975127625017
O 4.95767939335 -0.012085352 10.76997727675
O 3.2312504278838907 -0.0115074690777798 8.303009825525017
O 5.83806239668389 1.5245915161222203 8.282491031125017
O 10.86251250668389 1.42594173492222 8.234238813925018
