80   
   
Ga -0.01087285 -0.02978137 6.14523211
In -0.03261855 -0.08934411 18.43569633
In 5.035799464999999 2.76643537 6.167878180000001
In 5.014053765 2.70687263 18.4583424
In 3.319325935 -0.088437155 6.150805340000001
In 3.297580235 -0.147999895 18.44126956
In 1.70560068 2.825091155 6.16230495
Ga 1.6838549799999998 2.765528415 18.45276917
Ga 0.0 0.0 0.0
In -0.0217457 -0.05956274 12.29046422
In 5.046672315 2.79621674 0.02264607
In 5.024926614999999 2.736654 12.313110290000001
In 3.330198785 -0.058655785 0.00557323
In 3.308453085 -0.118218525 12.29603745
In 1.7164735299999998 2.854872525 0.01707284
Ga 1.6947278299999995 2.795309785 12.30753706
Ga 0.0288095750574998 1.9077173133055 3.082139252585
Ga 0.0070638750574998 1.8481545733055 15.372603472584998
Ga -1.5849156799425004 4.8212456233055 3.093638862585
Ga -1.6066613799425002 4.7616828833055 15.384103082584998
Ga 3.3590083600575 1.8490615283055 3.087712482585
Ga 3.3372626600575 1.7894987883054998 15.378176702584998
Ga 1.7452831050574993 4.7625898383055 3.099212092585
Ga 1.7235374050574994 4.7030270983055 15.389676312584998
Ga 1.6659182549424998 0.8875924716944998 9.225397807415002
Ga 1.6441725549424997 0.8280297316944999 21.515862027415
Ga 0.0521929999424999 3.8011207816945 9.236897417415
Ga 0.0304472999424999 3.7415580416945 21.527361637415
Ga 4.9961170399425 0.8289366866944998 9.230971037415
Ga 4.9743713399425005 0.7693739466944999 21.521435257415
Ga 3.3823917849425 3.7424649966945 9.242470647415
Ga 3.3606460849425 3.6829022566945 21.532934867415
O 0.0252454548274998 1.8979549802195 5.096546338243
O 0.0034997548274998 1.8383922402195 17.387010558243
O -1.5884798001725002 4.8114832902195 5.108045948243
O -1.6102255001725003 4.7519205502195 17.398510168243
O 3.3554442398274995 1.8392991952195 5.102119568243
O 3.3336985398275 1.7797364552195 17.392583788243
O 1.7417189848274994 4.7528275052195 5.113619178243
O 1.7199732848274991 4.6932647652195 17.404083398243003
O 1.6694823751725 0.8973548047804999 7.210990721756998
O 1.6477366751724998 0.8377920647804998 19.501454941756997
O 0.0557571201724999 3.8108831147805 7.222490331757
O 0.0340114201724999 3.7513203747805 19.512954551756998
O 4.9996811601725 0.8386990197804999 7.216563951757
O 4.9779354601725005 0.7791362797804998 19.507028171757003
O 3.3859559051725 3.7522273297805 7.228063561756999
O 3.3642102051725 3.6926645897805 19.518527781756998
O 1.6623541347124997 0.8778301386084999 11.239804893073
O 1.6406084347124998 0.8182673986084998 23.530269113072997
O 0.0486288797124999 3.7913584486085 11.251304503073
O 0.0268831797124999 3.7317957086085 23.541768723072998
O 4.9925529197125 0.8191743536084999 11.245378123073
O 4.9708072197125 0.7596116136084998 23.535842343073
O 3.3788276647125 3.7327026636085 11.256877733073
O 3.3570819647125 3.6731399236085 23.547341953072998
O 0.0323736952874998 1.9174796463915 1.067732166927
O 0.0106279952874998 1.8579169063915 13.358196386927002
O -1.5813515597125003 4.8310079563915 1.079231776927
O -1.6030972597125004 4.7714452163915 13.369695996927
O 3.3625724802875 1.8588238613915 1.073305396927
O 3.3408267802875 1.7992611213914995 13.363769616927
O 1.7488472252874994 4.7723521713915 1.084805006927
O 1.7271015252874993 4.7127894313915 13.375269226927
O -0.005436425 -0.014890685 3.072616055
O -0.027182125 -0.074453425 15.363080275
O 5.04123589 2.781326055 3.095262125
O 5.019490189999999 2.721763315 15.385726345
O 3.32476236 -0.07354647 3.078189285
O 3.30301666 -0.13310921 15.368653505
O 1.7110371049999995 2.83998184 3.089688895
O 1.689291405 2.7804191 15.380153115
O -0.016309275 -0.044672055 9.217848165
O -0.038054975 -0.104234795 21.508312385
O 5.030363039999999 2.751544685 9.240494235000002
O 5.00861734 2.691981945 21.530958455
O 3.31388951 -0.10332784 9.223421395
O 3.29214381 -0.16289058 21.513885615
O 1.7001642549999998 2.81020047 9.234921005
O 1.6784185549999997 2.75063773 21.525385225
