40   
   
In 12.409808997852668 2.5879652740699384 2.7950877092518382
In 7.591818471490986 2.636975864023873 11.887450826943097
In 5.211340860183595 2.3433264793520103 1.7211851198377095
In 3.7488330226835953 2.5489224268520103 13.27636260233771
Ga 8.810575002740986 2.4656459077738733 2.2581362581930966
In 11.191052466602669 2.7592952303199385 12.42440227800184
In 9.45492021160267 0.9320223703199384 4.835082823001838
In -0.3962944422590138 0.746154927773873 10.233224703193097
In 6.645330951602669 2.455885215319938 4.878455213001838
In 2.3148430377409865 2.4363638227738726 10.119092503193096
In 8.079321064490882 2.5684438842651525 8.03572515351213
In 11.92230640485277 2.6564972538286598 6.646813382682804
Ga 4.480086941433595 2.4461244531020103 7.498773861087709
In 8.264681426433595 0.7851976431020106 -0.2480501839122906
In 2.7439546864335957 0.6188515931020105 -0.0905455939122906
In 10.975818906433597 2.4754065381020105 -0.3621823839122906
O 7.808764670990882 0.9195769813651524 3.62688863681213
O 1.2459230271527728 0.8871631863286593 11.438588496982806
O 12.663310375852772 2.552328640428659 0.792190124882805
O 7.338317093490882 2.6726124976651526 13.890348411312129
O 2.2919760021908813 0.6246680617651524 3.7872236192121296
O 6.770587838352772 0.9249463667286592 11.283914299382804
O 10.411456651790882 2.5421775205651524 3.5173217248121293
O 9.590170817552771 2.682763617528659 11.165216811382804
O 4.957839555906345 2.378963144056188 3.7240825478550654
O 4.002334435406345 2.513285829756188 11.273465169755063
O 4.39011033549088 0.6312970496651524 1.1176485877121296
O 4.672453505052774 0.9183173788286592 13.953489330882803
O 9.90689900429088 0.9262059692651524 0.9573136053121296
O 10.18924217385277 1.2132262984286593 13.793154348482803
O 7.209693314690883 2.389114300465152 0.9989510997121296
O 12.791934154652772 2.835826837628659 13.683587436482803
O 3.478276683406345 0.9000555577561885 8.867526083355065
O 5.576411016706346 0.9066845456561884 6.197951051855065
O 8.332822442490986 2.532807250623873 6.032827569143096
O 11.668805026852668 2.6921338874699385 8.649710967051838
O 9.002941494606345 0.9378387381561883 8.712851885755065
O 0.0596223479063452 0.6117756260561884 6.358286034255065
O 6.0809686642063445 2.5226560969561884 8.757959171355065
O 2.8792053271063454 2.369592876856188 6.2395885462550655
