80   
   
Ga 1.69790334823 7.665030229879998 6.67086130736
Ga 6.95495686323 7.647602989879998 6.64536624736
Ga 3.63045401963 1.3331282435599998 1.8725967018200005
Al 8.887507534629998 1.31570100356 1.84710164182
In 1.00790355737 3.15790630764 1.8799644648
In 6.264957072369999 3.14047906764 1.8544694048000003
Ga 4.32045381049 5.8402521658 6.6634935443800005
Al 9.577507325489998 5.8228249258 6.63799848438
Ga 0.960479917145 5.91257559436 -0.02208780732
Ga 6.217533432145 5.89514835436 -0.04758286732
In 4.349491562855 3.0744910856400005 4.77733472232
In 9.606545077855 3.05706384564 4.75183966232
Ga 1.715521051275 1.42896778628 4.79498263416
In 6.972574566274999 1.41154054628 4.76948757416
Ga 3.641115118725 7.586250653719999 9.57501325084
In 8.898168633724998 7.568823413719999 9.54951819084
In 0.9306905844300002 0.29490837312 9.60005207565
In 6.187744099429999 0.27748113312 9.57455701565
Al 4.42585225619 8.72025376336 4.75071431141
Al 9.68290577119 8.70282652336 4.72521925141
In 1.7843078258899998 4.77318344576 4.77518014581
Ga 7.04136134089 4.75575620576 4.74968508581
Al 3.57223501473 4.241978690719999 9.57558624125
In 8.829288529729999 4.224551450719999 9.55009118125
Al 3.642451711145001 1.421713408 7.545162019220002
Al 8.899505226145001 1.404286168 7.519666959220001
In 1.694305300915 7.581512382239999 2.72895080456
Al 6.951358815915 7.564085142239999 2.70345574456
Al 4.317329133095 5.9005810068 2.72115692142
In 9.574382648095002 5.8831537668000005 2.69566186142
Al 1.019427878965 3.10264478344 7.55295590236
Ga 6.276481393965 3.08521754344 7.527460842360002
O 4.419561711885 6.0252820084800005 8.547018276280001
O 9.676615226885 6.0078547684800006 8.52152321628
O 0.927088214455 2.98391195488 3.765421329140001
O 6.184141729455001 2.96648471488 3.7399262691400006
O 3.550822101515 1.5187506124 3.75698826576
O 8.807875616515002 1.5013233724 3.731493205760001
O 1.795827824825 7.490443350959999 8.555451339660001
O 7.052881339825 7.473016110959998 8.52995627966
O 2.7895714559650004 0.0894719184 6.034052503040001
O 8.046624970964999 0.0720446784 6.008557443040001
O 2.532439514055 8.904857915680001 1.2017996462200002
O 7.789493029054999 8.887430675680001 1.17630458622
O 5.146706002715 4.5627628004 1.2018889860400002
O 10.403759517715 4.5453355604 1.17639392604
O 0.175304967305 4.43156703368 6.03396316322
O 5.432358482304999 4.41413979368 6.00846810322
O 0.108969537955 7.438220673439998 1.1409771137
O 5.366023052955 7.420793433439998 1.1154820537
O 5.212294797025 1.5556587324799998 5.941039052040001
O 10.469348312025 1.5382314924799998 5.915543992040001
O 2.588324225005 2.94889673064 5.949685175500001
O 7.845377740005 2.93146949064 5.9241901155
O 2.732940109975 6.04498267528 1.13233099024
O 7.989993624975 6.02755543528 1.1068359302400002
O 5.1643320815 7.508020609 6.087190498690001
O 10.421385596499999 7.490593369 6.061695438690001
O 0.15851885294 1.48681595676 1.32172713203
O 5.41557236794 1.4693887167600002 1.2962320720300002
O 2.79207516584 3.0064734035600003 1.3044520753300002
O 8.049128680839999 2.9890461635600003 1.2789570153300005
O 2.5307757686 5.988363162200001 6.104465555390001
O 7.7878292836 5.970935922200001 6.078970495390001
O 1.943237495855 1.54645925732 8.312641364660001
O 7.200291010855 1.52903201732 8.28714630466
O 3.4008925372250003 7.461214510999999 3.48060179638
O 8.657946052225 7.443787270999999 3.4551067363800003
O 0.7676320805250001 6.0314612446 3.49761052798
O 6.024685595524999 6.0140340046 3.47211546798
O 4.576497952555 2.976212523720001 8.29563263306
O 9.833551467555 2.95878528372 8.270137573060001
O 4.43692454516 0.0197578294 8.63193357033
O 9.69397806016 0.0023305894 8.606438510330001
O 0.91037868684 8.989830258599998 3.815112520670001
O 6.16743220184 8.972403018599998 3.7896174606700006
O 3.52417180558 4.503888454679999 3.81562798065
O 8.781225320579999 4.48646121468 3.790132920650001
O 1.8231314264200005 4.50569963332 8.631418110350001
O 7.080184941420001 4.48827239332 8.60592305035
