80   
   
Ga 7.450693774999999 2.478671735 7.4454678075
In 2.48308111 7.440875345 7.4537977975
Ga 7.44520523 7.449161550000001 2.4856574225
Ga 7.448134335 7.44373227 7.4506812975
Ga 2.480152005 7.446304625 2.4887739225
Ga 7.44776467 2.484101015 2.4804439325
Ga 2.4856405500000003 2.47581481 7.4485843075
Ga 2.482711445 2.48124409 2.4835604325
In 7.448123544419999 4.62629252612 4.96520809768
Ga 2.47758177442 9.59392541612 0.00851421268
In 7.44484635558 5.306970038880001 0.00089325732
In 4.96394399086 7.44538763854 4.6321059865
Ga 0.00437931086 2.47204089854 9.5950328715
Ga -0.00071087586 7.44179233146 5.3104657335
In 4.6292638232000005 4.9595792691 7.4498447245
Ga 9.5939473832 0.0028049391 2.4764908595
In 5.3070705018 -0.0050927241 7.4442073905
In 2.4827222355800003 5.29868383388 4.96903363232
In 7.44740579558 0.34190950388 -0.00432023268
In 2.48014121442 4.62886488112 0.00330072268
In 4.96690178914 2.4795887214600003 5.3021357435
In -0.00363998086 7.44722161146 0.3454418585
In 0.00145020586 2.47747017854 4.6300089965
In 5.301581956800001 4.965397090900001 2.4843970055
In 0.3420172768 -0.0079496491 7.4473238905
In 4.6288941582000005 -5.19859e-05 2.4796073595
Ga 2.4852816755800005 0.33362329888 4.96382014232
Ga 4.96397268414 2.4850180014600003 0.3371118685
In 0.3365287318 4.9625401659 2.4875135055
In 7.44556410442 9.59135306112 4.97042158768
In 4.9668730958600005 7.43995835854 9.5971298615
In 9.5943170482 4.9624361941 7.4467282245
O 6.158507502680001 3.87909671001 6.51432381318
O 3.77382385816 8.840744511729998 8.38788220018
O 8.736290158840001 6.05077798427 1.54995243982
O 6.15849293032 6.04182169399 8.383445871819998
O 6.51326668571 6.15617765204 3.88502454985
O 8.384284334509998 3.76859351904 8.846374145649998
O 1.54815964169 8.732785039159998 6.05560247415
O 8.38140378809 6.15488468976 6.04860315535
O 3.88294572687 6.509661230070001 6.16103260088
O 8.845630632030002 8.38198697063 3.77666491312
O 6.05179150757 1.5430230887699998 8.73627273188
O 6.04674658353 8.37776961053 6.16163407912
O 3.77233827732 6.04587964999 3.41991791682
O 6.15702192184 1.08423184827 1.54635952982
O 1.19455562116 3.87419837573 8.38428929018
O 3.77235284968 3.88315466601 1.55079585818
O 3.41757909429 3.76879870796 6.04921718015
O 1.54656144549 6.156382840959999 1.08786758435
O 8.382686138309998 1.19219132084 3.87863925585
O 1.54944199191 3.77009167024 3.88563857465
O 6.04790005313 3.41531512993 3.77320912912
O 1.08521514797 1.54298938937 6.15757681688
O 3.87905427243 8.381953271229998 1.19796899812
O 3.88409919647 1.54720674947 3.77260765088
O 1.18796573268 8.84672960001 1.55762992818
O 8.738507418159998 3.88397018173 3.4145283351799995
O 3.77672547884 1.0774312442699998 6.51287932482
O 1.19307004032 1.07933351399 3.41632500682
O 1.55370200571 1.18283091204 8.847951434849998
O 3.41374256451 8.73622640904 3.88968026065
O 6.51284320169 3.77601070916 1.08224860915
O 3.41598089809 1.19239650976 1.08148229035
O 8.847629286870001 1.55288690007 1.18767873588
O 3.886065952030001 3.40864023063 8.739591798119998
O 1.08124973757 6.510655978770001 3.77957884688
O 1.08132369353 3.4152814305299994 1.19451321412
O 8.742880047320002 1.07824675999 8.376611801819998
O 1.19233836184 6.04100617827 6.51971339482
O 6.154120301160001 8.84754511573 3.42136240518
O 8.737775739680004 8.845642846010001 6.51791672318
O 8.377143774289998 8.74214544796 1.08629029515
O 6.51710321549 1.18874995096 6.04456146935
O 3.4180025783099994 6.148965650839999 8.85199312085
O 6.51486488191 8.73257985024 8.85275943965
O 1.08321649313 8.37208945993 8.746562994119998
O 6.04477982797 6.516336129370001 1.19464993188
O 8.84959604243 3.41432038123 6.15466288312
O 8.849522086470001 6.50969492947 8.739728515879998
