80   
   
Al 10.964125597675 1.301188e-05 1.14842295308
Ga 10.964115102675 3.07106835188 1.14842463308
Ga 23.339600472675002 2.808188e-05 1.12404487308
Al 23.339589977675 3.07108342188 1.12404655308
Ga 0.0202221373249999 -1.29188e-06 4.53735812692
Ga 0.0202116423249999 3.07105404812 4.5373598069200005
Ga 12.395697012325002 1.377812e-05 4.51298004692
Ga 12.395686517325 3.07106911812 4.5129817269200005
Ga 4.776382912675 1.53553314688 1.16061283308
Ga 4.776372417675001 4.60658848688 1.16061451308
Ga 17.151857787675 1.53554821688 1.13623475308
Ga 17.151847292674994 4.60660355688 1.13623643308
Ga 6.207954327324999 1.53553391312 4.52516992692
Ga 6.207943832325 4.606589253119999 4.52517160692
Ga 18.583429202325 1.53554898312 4.50079184692
Ga 18.583418707325 4.606604323119999 4.50079352692
Ga 9.453455904335 1.53553804577 3.89666805848
Ga 9.453445409335 4.606593385769999 3.89666973848
Al 21.828930779335003 1.53555311577 3.87228997848
Ga 21.828920284335002 4.606608455769999 3.872291658480001
Ga 1.530881335665 1.53552901423 1.78911470152
Ga 1.530870840665 4.60658435423 1.78911638152
Ga 13.906356210665 1.53554408423 1.76473662152
Ga 13.906345715665 4.60659942423 1.76473830152
In 3.2657237143350004 2.84077e-06 3.90885625848
Ga 3.2657132193350007 3.07105818077 3.90885793848
Ga 15.641198589335001 1.791077e-05 3.88447817848
Ga 15.641188094335002 3.07107325077 3.88447985848
Ga 7.718624020665001 8.87923e-06 1.77692482152
Ga 7.718613525665002 3.07106421923 1.77692650152
Al 20.094098895665 2.394923e-05 1.75254674152
Al 20.094088400664997 3.07107928923 1.75254842152
O 9.626595161445 1.099894e-05 2.47517888076
O 9.626584666445002 3.07106633894 2.47518056076
O 22.002070036444998 2.606894e-05 2.45080080076
O 22.002059541445 3.07108140894 2.45080248076
O 1.357752573555 7.2106e-07 3.21060219924
O 1.3577420785549998 3.07105606106 3.21060387924
O 13.733227448555 1.579106e-05 3.18622411924
O 13.733216953555 3.07107113106 3.18622579924
O 3.438852476445 1.5355311339400002 2.48736876076
O 3.4388419814450004 4.606586473939999 2.48737044076
O 15.814327351444998 1.53554620394 2.46299068076
O 15.814316856444998 4.606601543939999 2.46299236076
O 7.545484763555 1.53553592606 3.19841399924
O 7.545474268555002 4.60659126606 3.19841567924
O 19.920959638555 1.53555099606 3.17403591924
O 19.920949143555003 4.60660633606 3.17403759924
O 9.095418366025 9.60195e-06 5.0616859556
O 9.095407871025 3.07106494195 5.0616876356
O 21.470893241025 2.467195e-05 5.0373078756
O 21.470882746024998 3.07108001195 5.0373095556
O 1.888929368975 2.11805e-06 0.6240951244
O 1.888918873975 3.0710574580500003 0.6240968044
O 14.264404243975 1.718805e-05 0.5997170444
O 14.264393748975 3.07107252805 0.5997187244
O 2.907675681025 1.53552973695 5.0738758356
O 2.9076651860250005 4.60658507695 5.0738775156
O 15.283150556024998 1.53554480695 5.0494977556
O 15.283140061024998 4.60660014695 5.0494994356
O 8.076661558975 1.53553732305 0.6119069243999999
O 8.076651063974998 4.606592663049999 0.6119086044
O 20.452136433975003 1.53555239305 0.5875288444
O 20.452125938975 4.60660773305 0.5875305244
O -0.98411081302 1.53552524123 4.24255158356
O -0.98412130802 4.60658058123 4.24255326356
O 11.39136406198 1.53554031123 4.21817350356
O 11.39135356698 4.60659565123 4.21817518356
O 11.96844805302 1.53554181877 1.44323117644
O 11.96843755802 4.60659715877 1.44323285644
O 24.34392292802 1.53555688877 1.41885309644
O 24.34391243302 4.60661222877 1.41885477644
O 5.20363187198 5.10623e-06 4.23036170356
O 5.20362137698 3.07106044623 4.23036338356
O 17.57910674698 2.017623e-05 4.20598362356
O 17.579096251979998 3.07107551623 4.20598530356
O 5.78071586302 6.61377e-06 1.45541937644
O 5.7807053680200005 3.07106195377 1.45542105644
O 18.15619073802 2.168377e-05 1.43104129644
O 18.15618024302 3.07107702377 1.43104297644
