80   
   
Al 10.84142986359 5.11331e-06 1.21007196934
In 10.84142269359 3.15392144831 1.21007631434
Ga 23.122816473590003 1.205331e-05 1.18636167934
In 23.122809303590003 3.15392838831 1.18636602434
Al -0.13248503359 -4.00331e-06 4.77414273066
Ga -0.1324922035899999 3.15391233169 4.77414707566
In 12.14890157641 2.93669e-06 4.75043244066
In 12.14889440641 3.15391927169 4.750436785660001
Al 4.70073297359 1.5769598108099998 1.22192928684
Al 4.70072580359 4.73087614581 1.22193363184
Ga 16.98211958359 1.5769667508099998 1.19821899684
Al 16.98211241359 4.73088308581 1.19822334184
Al 6.008204686409999 1.57695763419 4.7622897581600006
Al 6.008197516409999 4.73087396919 4.76229410316
Ga 18.28959129641 1.57696457419 4.73857946816
Ga 18.28958412641 4.73088090919 4.738583813160001
Al 9.24994749293 1.57696000466 4.101498361750001
Ga 9.24994032293 4.73087633966 4.101502706750001
In 21.53133410293 1.57696694466 4.077788071750001
In 21.53132693293 4.73088327966 4.07779241675
In 1.45899016707 1.57695744034 1.88272068325
In 1.45898299707 4.73087377534 1.88272502825
In 13.74037677707 1.57696438034 1.85901039325
Ga 13.74036960707 4.7308807153400005 1.85901473825
In 3.109257772930001 -1.63284e-06 4.113351334250001
Ga 3.109250602930001 3.15391470216 4.113355679250001
Ga 15.39064438293 5.30716e-06 4.08964104425
Ga 15.39063721293 3.15392164216 4.08964538925
In 7.59968705707 2.74284e-06 1.87086336575
Ga 7.59967988707 3.15391907784 1.87086771075
In 19.88107366707 9.68284e-06 1.84715307575
Ga 19.88106649707 3.15392601784 1.84715742075
O 9.46954966861 3.19167e-06 2.6058548108
O 9.46954249861 3.15391952667 2.6058591558
O 21.75093627861 1.013167e-05 2.5821445208
O 21.75092910861 3.15392646667 2.5821488658
O 1.23939516139 -2.08167e-06 3.3783598892
O 1.23938799139 3.15391425333 3.3783642342
O 13.52078177139 4.85833e-06 3.3546495992
O 13.52077460139 3.15392119333 3.3546539442
O 3.3288527786100004 1.5769578891699998 2.6177121283
O 3.3288456086100005 4.73087422417 2.6177164733
O 15.61023938861 1.5769648291699998 2.5940018383
O 15.61023221861 4.73088116417 2.5940061833000003
O 7.380084881390002 1.57695955583 3.3665069167
O 7.380077711390002 4.73087589083 3.3665112617
O 19.66147149139 1.57696649583 3.3427966267
O 19.66146432139 4.73088283083 3.3428009717
O 8.85548463515 6.062e-07 5.32725514895
O 8.85547746515 3.1539169412 5.327259493950001
O 21.13687124515 7.5462e-06 5.3035448589500005
O 21.13686407515 3.1539238812 5.30354920395
O 1.85346019485 5.038e-07 0.65695955105
O 1.8534530248500003 3.1539168388 0.65696389605
O 14.13484680485 7.4438e-06 0.63324926105
O 14.13483963485 3.1539237788 0.63325360605
O 2.71478774515 1.5769553037 5.3391124664500005
O 2.7147805751500003 4.730871638699999 5.33911681145
O 14.996174355149996 1.5769622437 5.31540217645
O 14.996167185149996 4.7308785787 5.31540652145
O 7.994149914850001 1.5769621413 0.64510657855
O 7.994142744850001 4.7308784763 0.64511092355
O 20.27553652485 1.5769690813 0.6213962885500001
O 20.27552935485 4.7308854163000005 0.6214006335500001
O -1.1192022811 1.57695386357 4.46379559891
O -1.1192094511 4.73087019857 4.46379994391
O 11.1621843289 1.57696080357 4.4400853089100005
O 11.1621771589 4.73087713857 4.44008965391
O 11.828139941100002 1.5769635814299998 1.52042344609
O 11.828132771100002 4.73087991643 1.52042779109
O 24.1095265511 1.5769705214299998 1.49671315609
O 24.1095193811 4.730886856430001 1.49671750109
O 5.0214946089 -8.3393e-07 4.45193828141
O 5.0214874389 3.15391550107 4.45194262641
O 17.3028812189 6.10607e-06 4.42822799141
O 17.3028740489 3.15392244107 4.42823233641
O 5.6874502211 1.94393e-06 1.5322764185900002
O 5.6874430511 3.15391827893 1.5322807635900002
O 17.9688368311 8.88393e-06 1.50856612859
O 17.9688296611 3.15392521893 1.50857047359
