80   
   
Al -0.04175471 -0.018003425 5.993423215
Al -0.12526413 -0.054010275 17.980269645
Ga 4.721938525 2.7044962650000004 6.033907855
Ga 4.638429105 2.6684894150000003 18.020754285
Al 3.125914245 -0.031960615 6.015281825
Al 3.042404825 -0.067967465 18.002128254999995
Al 1.55426957 2.718453455 6.012049245
Ga 1.47076015 2.682446605 17.998895675
Ga 0.0 0.0 0.0
Ga -0.08350942 -0.03600685 11.986846430000002
Ga 4.763693235 2.72249969 0.04048464
In 4.680183815 2.68649284 12.02733107
Ga 3.167668955 -0.01395719 0.02185861
Ga 3.084159535 -0.04996404 12.00870504
Ga 1.59602428 2.73645688 0.01862603
Ga 1.51251486 2.70045003 12.00547246
Al -0.0127516326535001 1.819772375135 3.001842244385
Ga -0.0962610526535001 1.783765525135 14.988688674385
Ga -1.5843963076535 4.5701864451350005 2.998609664385
Ga -1.6679057276535 4.534179595135001 14.985456094384999
Ga 3.1549173223465 1.805815185135 3.023700854385
Ga 3.0714079023465 1.769808335135 15.010547284384998
Ga 1.5832726473465 4.556229255135001 3.020468274385
Ga 1.4997632273465 4.5202224051350015 15.007314704385
Ga 1.5252664926534998 0.8806776548649999 9.003630215615
Ga 1.4417570726534998 0.8446708048649999 20.990476645615
Ga -0.0463781823465001 3.631091724865 9.000397635615
Ga -0.1298876023465001 3.5950848748650004 20.987244065615002
Al 4.6929354476535 0.866720464865 9.025488825615
Ga 4.6094260276535 0.830713614865 21.012335255615003
Ga 3.1212907726535 3.617134534865 9.022256245615
Ga 3.0377813526535 3.581127684865 21.009102675615
O -0.0264388265915001 1.81387085242 4.966486374262
O -0.1099482465915001 1.77786400242 16.953332804262
O -1.5980835015915 4.564284922420001 4.963253794262
O -1.6815929215915 4.52827807242 16.950100224262
O 3.1412301284085 1.79991366242 4.988344984262
O 3.0577207084085 1.76390681242 16.975191414262
O 1.5695854534085 4.55032773242 4.985112404262
O 1.4860760334085 4.514320882420001 16.971958834262
O 1.5389536865915 0.8865791775799999 7.038986085737999
O 1.4554442665915 0.8505723275799999 19.025832515738
O -0.0326909884085001 3.63699324758 7.035753505738
O -0.1162004084085001 3.6009863975800003 19.022599935738
O 4.7066226415915 0.87262198758 7.060844695737999
O 4.6231132215915 0.83661513758 19.047691125738
O 3.1349779665915 3.62303605758 7.057612115738
O 3.0514685465915 3.58702920758 19.044458545738
O 1.5115792987155 0.8747761321499999 10.968274345492
O 1.4280698787155 0.8387692821499999 22.955120775492
O -0.0600653762845001 3.62519020215 10.965041765492
O -0.1435747962845001 3.5891833521500005 22.951888195492
O 4.6792482537155005 0.86081894215 10.990132955492
O 4.5957388337155 0.82481209215 22.976979385492
O 3.1076035787155 3.61123301215 10.986900375492
O 3.0240941587155 3.5752261621500003 22.973746805492
O 0.0009355612844999 1.82567389785 1.037198114508
O -0.0825738587155001 1.78966704785 13.024044544508
O -1.5707091137155 4.57608796785 1.033965534508
O -1.6542185337155 4.540081117850001 13.020811964508
O 3.1686045162845 1.81171670785 1.059056724508
O 3.0850950962845 1.77570985785 13.045903154508
O 1.5969598412845 4.562130777850001 1.055824144508
O 1.5134504212845 4.526123927850001 13.042670574508
O -0.020877355 -0.0090017125 2.9967116075
O -0.104386775 -0.0450085625 14.9835580375
O 4.74281588 2.7134979775000003 3.0371962475
O 4.65930646 2.6774911275 15.0240426775
O 3.1467916 -0.0229589025 3.0185702175
O 3.06328218 -0.0589657525 15.0054166475
O 1.575146925 2.7274551675 3.0153376375
O 1.491637505 2.6914483175 15.0021840675
O -0.062632065 -0.0270051375 8.9901348225
O -0.146141485 -0.0630119875 20.9769812525
O 4.70106117 2.6954945525 9.0306194625
O 4.61755175 2.6594877025000003 21.0174658925
O 3.10503689 -0.0409623275 9.0119934325
O 3.02152747 -0.0769691775 20.9988398625
O 1.533392215 2.7094517425 9.0087608525
O 1.449882795 2.6734448925 20.9956072825
