80   
   
Ga 10.788182242725002 3.973545e-06 1.198283693015
Ga 10.788173592725002 3.105466673545 1.198298338015
Al 23.000760367724997 9.278545e-06 1.188794928015
Al 23.000751717725 3.105471978545 1.188809573015
In -0.1026834977250001 -2.808545e-06 4.679588421985001
Al -0.1026921477250002 3.105459891455 4.679603066985
Al 12.109894627274999 2.496455e-06 4.670099656985
Ga 12.109885977275 3.105465196455 4.670114301985
In 4.681888855225 1.5527326710449998 1.203035398015
Al 4.681880205225 4.658195371044999 1.203050043015
In 16.894466980224998 1.552737976045 1.193546633015
Ga 16.894458330225 4.658200676045 1.193561278015
Al 6.003601239775 1.552731193955 4.6748513619850005
Ga 6.003592589775 4.658193893955 4.674866006985001
Al 18.216179364775 1.552736498955 4.665362596985
In 18.216170714775 4.658199198955 4.665377241985
In 9.223197423445 1.552732971465 4.0307568348150005
Al 9.223188773445 4.658195671465 4.030771479815001
In 21.435775548444997 1.552738276465 4.021268069815
In 21.435766898445 4.658200976465 4.021282714815
Al 1.4622926715550002 1.552730893535 1.847129925185
Al 1.462284021555 4.658193593535 1.847144570185
In 13.674870796555 1.552736198535 1.837641160185
Al 13.674862146555 4.658198898535 1.837655805185
Ga 3.116912685945 -1.031035e-06 4.0354938948150005
Al 3.116904035945 3.105461668965 4.035508539815001
Ga 15.329490810944998 4.273965e-06 4.026005129815
Ga 15.329482160944998 3.105466973965 4.026019774815
In 7.568586059055 2.196035e-06 1.842378220185
Ga 7.568577409055002 3.105464896035 1.842392865185
Ga 19.781164184055 7.501035e-06 1.832889455185
Al 19.781155534055003 3.105470201035 1.832904100185
O 9.432468420315 2.578055e-06 2.564929495905
O 9.432459770315 3.105465278055 2.564944140905
O 21.645046545315 7.883055e-06 2.555440730905
O 21.645037895314996 3.105470583055 2.5554553759050003
O 1.253030324685 -1.413055e-06 3.312942619095
O 1.253021674685 3.105461286945 3.312957264095
O 13.465608449685002 3.891945e-06 3.303453854095
O 13.465599799685 3.105466591945 3.303468499095
O 3.3261750328150006 1.552731275555 2.569681200905
O 3.3261663828150003 4.658193975555 2.569695845905
O 15.538753157815002 1.552736580555 2.560192435905
O 15.538744507814998 4.658199280555 2.560207080905
O 7.359315062185 1.552732589445 3.308205559095
O 7.359306412185 4.658195289445 3.308220204095
O 19.571893187185005 1.552737894445 3.298716794095
O 19.571884537185007 4.658200594445 3.298731439095
O 8.838402086175 7.45075e-07 5.231828064425001
O 8.838393436175 3.105463445075 5.231842709425
O 21.050980211175002 6.050075e-06 5.222339299425
O 21.050971561175 3.105468750075 5.222353944425
O 1.8470966588250004 4.19925e-07 0.646044050575
O 1.8470880088250008 3.105463119925 0.6460586955750001
O 14.059674783825 5.724925e-06 0.636555285575
O 14.059666133825 3.105468424925 0.636569930575
O 2.7321086986750007 1.552729442575 5.236579769425
O 2.732100048675001 4.658192142575 5.236594414425
O 14.944686823675001 1.552734747575 5.2270910044250005
O 14.944678173675001 4.658197447575 5.227105649425
O 7.953381396324998 1.552734422425 0.6413069905750001
O 7.953372746325 4.658197122425 0.641321635575
O 20.165959521325 1.552739727425 0.631818225575
O 20.165950871325 4.658202427425 0.631832870575
O -1.08577399184 1.5527282952 4.37427850128
O -1.08578264184 4.6581909952 4.37429314628
O 11.12680413316 1.5527336001999998 4.36478973628
O 11.12679548316 4.6581963002 4.36480438128
O 11.771264086839999 1.5527355697999998 1.50360825872
O 11.77125543684 4.6581982698 1.50362290372
O 23.98384221184 1.5527408747999998 1.49411949372
O 23.98383356184 4.6582035748 1.49413413872
O 5.02051939566 -4.023e-07 4.36952679628
O 5.02051074566 3.1054622977 4.36954144128
O 17.233097520660003 4.9027e-06 4.36003803128
O 17.23308887066 3.1054676027 4.3600526762800005
O 5.66497934934 1.5673e-06 1.50834531872
O 5.66497069934 3.1054642673 1.50835996372
O 17.877557474339998 6.8723e-06 1.49885655372
O 17.877548824339996 3.1054695723 1.49887119872
