40   
   
Al 8.344640286586428 -0.0086096704050002 13.693034766171305
Al 6.717725273413572 0.0204389216550002 2.322294312578695
Al 5.047046635 0.021022245 -0.056640465
Al 9.235158153413572 1.5051280016550004 2.2986217175786945
Al 4.188111518413572 1.4841057566550002 2.3552621825786946
In 5.02078852 0.00394308375 5.33844302625
Al 1.661925933413572 -0.0062763770949998 4.177295941328695
Al 8.388403811586429 0.0198555983449998 4.701228947421305
Al 2.48242206 1.461916865 7.169772060000001
In 7.529468695 1.48293911 7.1131315950000005
In 8.362145696586428 0.0027764370949998 10.096312438671305
Al 5.00328311 -0.00744302375 8.935165353750001
In 3.306346356586428 -0.0239388616550002 11.951314067421306
Al 1.635667818413572 -0.0233555383449998 9.572379432578696
Al 5.823779236586428 1.460750218345 11.927641472421303
Al 10.87082587158643 1.4817724633449998 11.871001007421306
O 3.4260398724 0.01042385005 1.18437007515
O 1.618512516613572 -0.0345139236949998 13.097167313528695
O 5.8427754372 1.43572536685 1.16164438395
O 10.8893348372 1.5746818484500005 1.1053757299500002
O 8.405559113386428 0.0310139836949998 1.1764410664713054
O 6.598031757600001 -0.01392379005 13.08923830485
O 9.2161619528 1.5301528531500002 13.06461880605
O 4.1696025528 1.3911963715500002 13.12088746005
O 6.767397048986427 0.0092572033949998 5.942239487571306
O 5.0298913332 0.00986385965 3.4681474159500003
O 9.18413261378643 1.434558720195 5.919513796371306
O 4.136598743786428 1.531470711795 5.976526072371305
O 1.652823120213572 -0.0121971529949998 6.047591551628695
O 10.009410574186429 0.0304539932949998 3.4602184072713054
O 12.62754076938643 1.5745306364949998 3.435598908471305
O 7.5809813693864285 1.4355741548949998 3.4918675624713056
O 0.0146610558135721 -0.0339539332949998 10.813389972728695
O 8.37124850978643 0.0086972129949998 8.226016828371305
O 2.4313966206135715 1.3913475835050002 10.790664281528697
O 7.477956020613573 1.5303040651050004 10.734395627528697
O 4.9941802968 -0.01336379965 10.80546096405
O 3.256674581013572 -0.0127571433949998 8.331368892428694
O 5.874804776213572 1.5313194998050002 8.306749393628694
O 10.922338646213571 1.434407508205 8.249737117628694
