60   
   
Al -0.0004308675 0.0023251359 1.9516007359
Ga 4.9767443625 0.0247024009 1.9521397009
Al -0.0019166175 0.0103428459 8.6812584459
Ga 4.9752586125 0.0327201109 8.6817974109
Al -0.0025406325 0.0137102841 11.5077146841
Ga 4.974634597500001 0.0360875491 11.508253649099998
Al -0.0010548825 0.0056925741 4.778056974099999
Ga 4.9761203475 0.0280698391 4.7785959391
Ga 2.48076081463917 1.4555174693728796 6.4366418508544
Al 7.457936044639172 1.4778947343728797 6.4371808158544
Ga 2.4792750646391704 1.4635351793728797 13.1662995608544
Al 7.456450294639171 1.4859124443728795 13.1668385258544
Ga 2.4816225496391704 1.4508671975728795 2.5334403790544
Al 7.458797779639172 1.4732444625728798 2.5339793440544
Ga 2.4801367996391703 1.4588849075728798 9.2630980890544
Al 7.457312029639171 1.4812621725728798 9.2636370540544
Ga -0.0152152896391698 2.88633689742712 10.9211574559456
Ga 4.96195994036083 2.90871416242712 10.9216964209456
Ga -0.0137295396391698 2.87831918742712 4.1914997459456
Ga 4.963445690360831 2.90069645242712 4.1920387109456
Ga -0.0143535546391698 2.88168662562712 7.0179559841456
Ga 4.96282167536083 2.9040638906271203 7.0184949491456
Ga -0.0128678046391698 2.87366891562712 0.2882982741456
Ga 4.964307425360831 2.89604618062712 0.2888372391455999
O 1.50734121969 0.010789166295 3.364992161395
O 6.48451644969 0.033166431295 3.365531126395
O 1.7204141207199997 3.0158634214749998 3.361540698255
O 6.69758935072 3.038240686475 3.362079663255
O 9.19374525459 1.35129718223 3.36431405035
O 4.21657002459 1.32891991723 3.36377508535
O 0.74599313928 1.321340673525 10.093057136745
O 5.723168369280001 1.343717938525 10.093596101745002
O -1.7501627645900002 3.00828417777 10.09082274965
O 3.2270124654100005 3.03066144277 10.09136171465
O 3.46686251031 0.027623518705 10.094862223605
O 8.44403774031 0.050000783705 10.095401188605
O 3.98853290182917 1.4639814997678795 7.850033276349398
O 8.965708131829171 1.4863587647678798 7.850572241349399
O 1.73222704285917 0.14788707994788 7.851299398209399
O 6.709402272859172 0.17026434494788 7.851838363209398
O 1.72058647672917 2.75973498570288 7.848277235304399
O 6.697761706729171 2.78211225070288 7.848816200304398
O 3.2301563214191704 2.75849758699788 1.1187828316994
O 8.207331551419172 2.78087485199788 1.1193217966994
O 3.24179688754917 0.14664968124288 1.1218049946044
O 8.218972117549171 0.16902694624288 1.1223439596044
O 0.97385046244917 1.4424031671778796 1.1200489535594
O 5.951025692449171 1.4647804321778797 1.1205879185594
O 1.49255679755083 2.89480092782212 12.3345488814406
O 6.46973202755083 2.9171781928221203 12.3350878464406
O -0.76374906141917 1.57870650800212 12.3358150033006
O 4.21342616858083 1.60108377300212 12.3363539683006
O -0.7753896275491696 4.19055441375712 12.3327928403956
O 4.2017856024508315 4.212931678757119 12.3333318053956
O 0.7341802171408301 4.18931701505212 5.6032984367906
O 5.71135544714083 4.21169428005212 5.6038374017906
O 0.7458207832708302 1.5774691092971198 5.6063205996956
O 5.722996013270831 1.5998463742971198 5.6068595646956
O -1.5221256418291702 2.87322259523212 5.6045645586506
O 3.4550495881708305 2.89559986023212 5.6051035236506
