40   
   
Al 0.0610901405445699 3.505568185698708 13.793585570512548
In 1.542966050185724 2.6387713199224168 2.3952983279628746
Ga 3.065104080185724 -0.0103882450775833 2.3860641979628747
Ga -1.512851834814276 2.6452803999224166 2.407377917962875
Ga 3.0596651905197065 1.7574275856288757 -0.0099500334754248
Ga 3.0805591292697065 1.7486994643788756 5.385873381524576
Al 0.0162508414357239 -0.0067885388275833 4.196751592962875
In -1.490432139480294 4.401458735628876 7.2057949065245746
In 0.0317058905197061 1.7522991706288755 7.196560776524575
Ga 1.5653857455197062 4.394949655628876 7.193715316524576
Ga 0.0471608480445699 3.511386933198708 10.19636996051255
In 3.0944884217697064 1.7428807168788756 8.983088991524577
In 4.632081409294569 0.8528089144487077 11.973664045512548
Ga 3.1099433792945694 3.501968479448708 11.98289817551255
Al 1.5762635242945695 0.8593179944487076 11.98574363551255
Ga 0.0371447801857239 -0.0155166600775833 9.592575007962875
O 4.5293470427697065 0.9056352450788758 1.2062828835245754
O 3.0680945339697065 3.448828427478876 1.2151476483245751
O 1.5957618731697063 0.9118839618788758 1.2178792899245754
O 0.0507954868357239 -0.0212190326275833 13.117846305762873
O 0.0126162026445699 3.525817426998708 1.27527524771255
O 1.645700508269706 2.585944936178876 13.162679489524576
O 3.1069530170697055 0.0427517537788757 13.153814724724576
O 4.579285677869707 2.579696219378876 13.151083083124576
O 1.4959487615445703 2.668322713898708 6.0167794625125515
O 0.0346962527445703 5.211515896298708 6.02564422731255
O -1.43763640805543 2.674571430698708 6.02837586891255
O 3.0733158971697065 1.7517252130788756 3.5153212643245757
O 0.0234940735357239 -0.0098142875275833 6.067303710162875
O -1.44341494295543 4.371907394998709 3.5843136285125494
O 0.0178375658445699 1.828714212598708 3.57544886371255
O 1.4901702266445709 4.365658678198709 3.57271722211255
O -1.5374494275642758 4.4310101293724165 10.827276184962873
O 0.045574123635724 1.6758841817724168 10.817672689762874
O 1.6406011728357248 4.424240686172417 10.814713411362877
O 0.0399176159445699 3.5144126818987083 8.32581784331255
O 3.1017316538697064 1.7398549681788755 10.853641108724576
O 4.679098697935724 0.8232575204724167 8.352182910962878
O 3.096075146735724 3.578383468072417 8.361786406162876
O 1.501048097535724 0.8300269636724167 8.364745684562877
