80   
   
Ga -0.0285078675 -0.0454518225 6.0962802425
In -0.0855236025 -0.1363554675 18.2888407275
Al 4.8776182425 2.8575202525 6.1396118875
In 4.8206025075 2.7666166075 18.3321723725
Al 3.2623749825 -0.0101537025 6.111650807499999
In 3.2053592475 -0.1010573475 18.3042112925
Al 1.5867353925 2.8222221325000003 6.1242413225
Al 1.5297196575 2.7313184875000003 18.3168018075
Ga 0.0 0.0 0.0
Al -0.057015735 -0.090903645 12.192560485
In 4.90612611 2.902972075 0.043331645
In 4.849110375 2.81206843 12.235892130000002
Al 3.29088285 0.03529812 0.015370565
In 3.233867115 -0.055605525 12.20793105
Ga 1.61524326 2.8676739550000003 0.02796108
In 1.558227525 2.7767703100000003 12.220521565
In -0.0343840305390001 1.877100683757 3.0616559678635
Ga -0.0913997655390001 1.786197038757 15.254216452863501
Al -1.7100236205390005 4.7094765187570005 3.0742464828635
In -1.7670393555390005 4.618572873757 15.2668069678635
Ga 3.256498819461 1.912398803757 3.0770265328635
In 3.1994830844610003 1.821495158757 15.269587017863497
Ga 1.5808592294609998 4.744774638757 3.0896170478635
In 1.5238434944609998 4.653870993757 15.282177532863502
Ga 1.592611555539 0.899669626243 9.158865597136499
In 1.535595820539 0.8087659812429999 21.351426082136495
Al -0.0830280344610002 3.732045461243 9.171456112136498
Al -0.1400437694610002 3.641141816243 21.364016597136494
Ga 4.883494405539 0.934967746243 9.174236162136499
Ga 4.826478670538999 0.8440641012429999 21.366796647136496
In 3.207854815539 3.767343581243 9.1868266771365
Al 3.150839080539 3.676439936243 21.379387162136496
O -0.0437289095055001 1.8622015763415 5.060016631355
O -0.1007446445055001 1.7712979313414998 17.252577116355003
O -1.7193684995055003 4.694577411341501 5.072607146355
O -1.7763842345055003 4.603673766341501 17.265167631355
O 3.2471539404945 1.8974996963415 5.075387196355
O 3.1901382054945 1.8065960513415 17.267947681355
O 1.5715143504944995 4.7298755313415 5.087977711354999
O 1.5144986154945 4.6389718863415 17.280538196355003
O 1.6019564345055 0.9145687336585 7.160504933644999
O 1.5449406995055 0.8236650886585 19.353065418645
O -0.0736831554945002 3.7469445686585 7.173095448645
O -0.1306988904945002 3.6560409236585 19.365655933644998
O 4.8928392845055 0.9498668536585 7.175875498645
O 4.835823549505499 0.8589632086585 19.368435983645
O 3.2171996945055 3.7822426886585 7.188466013644999
O 3.1601839595055 3.6913390436585 19.381026498645
O 1.5832666765725 0.8847705188275 11.157226260628
O 1.5262509415725 0.7938668738275 23.349786745628
O -0.0923729134275002 3.7171463538275 11.169816775628
O -0.1493886484275002 3.6262427088275 23.362377260628
O 4.8741495265724994 0.9200686388275 11.172596825628
O 4.8171337915725 0.8291649938275 23.365157310628
O 3.1985099365725 3.7524444738275 11.185187340628
O 3.1414942015725 3.6615408288275 23.377747825628
O -0.0250391515725001 1.8919997911725 1.063295304372
O -0.0820548865725001 1.8010961461725 13.255855789372
O -1.7006787415725004 4.724375626172501 1.075885819372
O -1.7576944765725004 4.633471981172501 13.268446304372
O 3.2658436984275 1.9272979111725 1.078665869372
O 3.2088279634275003 1.8363942661725 13.271226354372
O 1.5902041084274998 4.7596737461725 1.091256384372
O 1.5331883734274998 4.6687701011725 13.283816869372
O -0.01425393375 -0.02272591125 3.04814012125
O -0.07126966875 -0.11362955625 15.24070060625
O 4.89187217625 2.8802461637500003 3.09147176625
O 4.83485644125 2.7893425187500003 15.28403225125
O 3.27662891625 0.01257220875 3.06351068625
O 3.21961318125 -0.07833143625 15.25607117125
O 1.60098932625 2.8449480437500005 3.07610120125
O 1.54397359125 2.7540443987500005 15.268661686249997
O -0.04276180125 -0.06817773375 9.14442036375
O -0.09977753625 -0.15908137875 21.33698084875
O 4.86336430875 2.8347943412500003 9.18775200875
O 4.80634857375 2.7438906962500003 21.38031249375
O 3.24812104875 -0.03287961375 9.15979092875
O 3.19110531375 -0.12378325875 21.35235141375
O 1.57248145875 2.7994962212500005 9.17238144375
O 1.51546572375 2.7085925762500005 21.36494192875
