80   
   
In -0.035520525 -0.04430865 6.064387845
Ga -0.106561575 -0.13292595 18.193163535
In 4.80778584 2.852101615 6.11248815
Al 4.73674479 2.763484315 18.24126384
Al 3.22211289 0.005818535 6.08349052
Ga 3.15107184 -0.082798765 18.21226621
In 1.550152425 2.80197443 6.093385475
In 1.479111375 2.71335713 18.222161165
In 0.0 0.0 0.0
In -0.07104105 -0.0886173 12.12877569
Al 4.843306365 2.896410265 0.048100305
Al 4.772265315 2.807792965 12.176875995
Al 3.257633415 0.050127185 0.019102675
Ga 3.186592365 -0.038490115 12.147878364999999
In 1.58567295 2.84628308 0.02899763
Ga 1.5146319 2.75766578 12.157773319999999
Ga -0.0465198912495 1.8584705853675 3.0451568210805
Al -0.1175609412495 1.7698532853675 15.1739325110805
Al -1.7184803562495 4.6546264803675 3.0550517760805
Al -1.7895214062495 4.5660091803675 15.1838274660805
Al 3.2111135237505004 1.9085977703675 3.0642594960805
In 3.1400724737505006 1.8199804703675 15.193035186080499
Ga 1.5391530587505002 4.7047536653675 3.0741544510805
In 1.4681120087505002 4.6161363653675 15.202930141080499
Al 1.5611517912494997 0.8991951946325 9.1126164989195
Al 1.4901107412494998 0.8105778946325 21.241392188919495
Ga -0.1108086737505 3.6953510896325 9.1225114539195
Ga -0.1818497237505 3.6067337896325 21.251287143919495
In 4.818785206249499 0.9493223796325 9.131719173919501
In 4.7477441562495 0.8607050796325 21.260494863919494
Al 3.1468247412495 3.7454782746325 9.141614128919501
Ga 3.0757836912495 3.6568609746325 21.270389818919494
O -0.0581635193445 1.8439462098975 5.0330631566715
O -0.1292045693445 1.7553289098975 17.161838846671493
O -1.7301239843445 4.640102104897499 5.042958111671499
O -1.8011650343445 4.5514848048975 17.171733801671493
O 3.199469895655501 1.8940733948975 5.052165831671499
O 3.1284288456555003 1.8054560948975 17.1809415216715
O 1.5275094306555002 4.690229289897499 5.062060786671499
O 1.4564683806555 4.6016119898975 17.1908364766715
O 1.5727954193444995 0.9137195701025 7.1247101633285
O 1.5017543693444997 0.8251022701024999 19.253485853328495
O -0.0991650456555 3.709875465102499 7.1346051183285
O -0.1702060956555 3.6212581651025 19.263380808328495
O 4.8304288343445 0.9638467551025 7.1438128383285
O 4.7593877843445 0.8752294551024999 19.272588528328498
O 3.1584683693445 3.7600026501025 7.153707793328499
O 3.0874273193445 3.6713853501025 19.282483483328495
O 1.5495081631544998 0.8846708191624999 11.1005228345105
O 1.4784671131544995 0.7960535191625 23.229298524510497
O -0.1224523018455 3.6808267141625 11.1104177895105
O -0.1934933518455 3.5922094141624994 23.239193479510497
O 4.8071415781545 0.9347980041625 11.119625509510499
O 4.7361005281545 0.8461807041625 23.248401199510496
O 3.1351811131545 3.7309538991625 11.129520464510499
O 3.0641400631545 3.6423365991624994 23.258296154510496
O -0.0348762631545 1.8729949608375 1.0572504854895
O -0.1059173131545 1.7843776608375 13.1860261754895
O -1.7068367281545 4.6691508558375 1.0671454404895
O -1.7778777781545 4.5805335558375 13.1959211304895
O 3.2227571518455003 1.9231221458375 1.0763531604894998
O 3.1517161018455004 1.8345048458375 13.205128850489501
O 1.5507966868455 4.7192780408375 1.0862481154894998
O 1.4797556368455005 4.6306607408375 13.215023805489501
O -0.0177602625 -0.022154325 3.0321939225
O -0.0888013125 -0.110771625 15.160969612499997
O 4.8255461025 2.8742559400000003 3.0802942275
O 4.7545050525 2.78563864 15.2090699175
O 3.2398731525 0.02797286 3.0512965975
O 3.1688321025 -0.06064444 15.1800722875
O 1.5679126875 2.8241287550000003 3.0611915525
O 1.4968716375 2.735511455 15.1899672425
O -0.0532807875 -0.066462975 9.0965817675
O -0.1243218375 -0.155080275 21.2253574575
O 4.7900255775 2.82994729 9.1446820725
O 4.7189845275 2.74132999 21.2734577625
O 3.2043526275 -0.01633579 9.1156844425
O 3.1333115775 -0.10495309 21.2444601325
O 1.5323921625 2.779820105 9.1255793975
O 1.4613511125 2.691202805 21.2543550875
