80   
   
Al 1.60125922424 7.254819684280002 6.36767917688
Al 6.562701979240001 7.232389084280001 6.351392826879999
Al 3.42503059194 1.25666742468 1.7907758041
Ga 8.38647334694 1.23423682468 1.7744894541
Al 0.95204179262 2.99018865868 1.79718755428
Al 5.91348454762 2.96775805868 1.78090120428
Al 4.074248023560001 5.5212984502800015 6.3612674267
Ga 9.03569077856 5.498867850280001 6.344981076699999
Ga 0.913286552365 5.606268608600001 -0.00855524443
Al 5.874729307365 5.583838008600001 -0.02484159443
Ga 4.101294777635 2.9018467114000006 4.56049431943
Al 9.062737532635 2.8794161114000003 4.54420796943
Al 1.6135298635750002 1.3442288834 4.57021463387
Ga 6.574972618575001 1.3217982834000002 4.55392828387
Al 3.4307684364250006 7.1724442766 9.13531811113
Ga 8.392211191425 7.1500136766 9.11903176113
Al 0.8643580385700002 0.26056895136 9.141446827229998
Al 5.82580079357 0.23813835136 9.12516047723
Al 4.17988082749 8.256087092960001 4.54577873043
Ga 9.14132358249 8.23365649296 4.52949238043
Al 1.6823162103900002 4.51574491296 4.55769332583
Al 6.64375896539 4.49331431296 4.541406975829999
Ga 3.3619226556700004 4.0009111313600005 9.12953223183
Al 8.32336541067 3.9784805313600007 9.11324588183
Al 3.427985516695 1.3299939780800003 7.191376357169999
Al 8.389428271695001 1.3075633780800002 7.17509000717
Al 1.6036533540850002 7.18303354208 2.61472548441
Ga 6.565096109085 7.16060294208 2.5984391344099995
Al 4.077254634845 5.585932580080001 2.6081765916699995
Al 9.038697389845 5.563501980080001 2.59189024167
Al 0.954384235935 2.9270949400800004 7.19792524991
Ga 5.915826990935001 2.9046643400800005 7.18163889991
O 4.165182678315 5.69311980672 8.15492348987
O 9.126625433315 5.6706892067200005 8.13863713987
O 0.872756190105 2.82172197552 3.59174020975
O 5.834198945105001 2.79929137552 3.57545385975
O 3.3472761930250003 1.4292514215200005 3.58498560317
O 8.308718948024998 1.4068208215200002 3.56869925317
O 1.690662675395 7.08559036072 8.16167809645
O 6.652105430395 7.06315976072 8.145391746449999
O 2.623793941315 0.07034321936 5.74898294199
O 7.585236696314999 0.04791261936 5.73269659199
O 2.398454366945 8.43998002336 1.16458329987
O 7.359897121945002 8.41754942336 1.14829694987
O 4.860724741065 4.31910402936 1.16057154449
O 9.822167496065001 4.29667342936 1.14428519449
O 0.161523567195 4.19121921336 5.752994697369999
O 5.122966322195 4.16878861336 5.73670834737
O 0.109675029125 7.051921848640001 1.10025198275
O 5.071117784125 7.02949124864 1.0839656327499998
O 4.912097807615 1.45826446864 5.66685676039
O 9.873540562615 1.43583386864 5.65057041039
O 2.437271563975 2.7825248866400005 5.67367993825
O 7.398714318975002 2.76009428664 5.65739358825
O 2.5845012727650003 5.72766143064 1.0934288048899998
O 7.545944027764999 5.705230830640001 1.07714245489
O 4.873445659870001 7.103090303720001 5.81700530191
O 9.83488841487 7.080659703720001 5.80071895191
O 0.14933755385 1.40738698012 1.26132562601
O 5.11078030885 1.3849563801200002 1.24503927601
O 2.63656654665 2.8456370701200004 1.25172531131
O 7.59800930165 2.8232064701200006 1.23543896131
O 2.38621666707 5.664840213720001 5.826605616609999
O 7.347659422070001 5.642409613720001 5.81031926661
O 1.823323345875 1.4487790328400003 7.919675606169998
O 6.784766100875001 1.4263484328400002 7.903389256169999
O 3.213010806165 7.06560062604 3.33269403527
O 8.174453561165 7.04317002604 3.31640768527
O 0.7261646142650001 5.71261320604 3.34220863587
O 5.687607369265 5.6901826060400005 3.3259222858699995
O 4.310169537775001 2.801766452840001 7.910161005569998
O 9.271612292775 2.7793358528400005 7.893874655569999
O 4.174549696270001 -0.0025236586 8.22461034299
O 9.13599245127 -0.0249542586 8.208323992989998
O 0.8638052097300001 8.5174852506 3.65020366801
O 5.82524796473 8.4950546506 3.63391731801
O 3.32546310241 4.2601889846 3.64632905519
O 8.28690585741 4.2377583846 3.63004270519
O 1.7128918035900005 4.2547726074000005 8.22848495581
O 6.674334558590001 4.232342007400001 8.21219860581
