80   
   
In 7.153207210000001 2.38237217 7.1335888325
Al 2.382789205 7.136688105 7.1497848475
Ga 7.136460260000001 7.152035495000001 2.3782478875
In 7.145338575 7.144755330000001 7.140694957500001
In 2.37391089 7.14396827 2.3873377775
Al 7.144328895000001 2.389652335 2.3711417625
In 2.39065784 2.374304945 7.1426787225
Al 2.381779525 2.38158511 2.3802316525
In 7.14536880218 4.44336177762 4.755435143500001
In 2.3660724821800003 9.20495787762 0.0091840885
Ga 7.135420352820001 5.09832605238 -0.0060454935
Ga 4.75902100708 7.144856851219999 4.440169966740001
Al 0.01321858708 2.36712630122 9.20460080174
In -0.00232091208 7.13579952378 5.09695265826
Al 4.44414485034 4.7589815662 7.142304952520001
Al 9.20568454034 0.0119457962 2.3636618675200003
In 5.09972019966 -0.0023044512 7.1339626024800005
Al 2.3817492978200003 5.08297866238 4.7654914665
In 7.14328898782 0.33594289238 -0.0131516185
Al 2.37394111718 4.44257471762 0.0020779635
Ga 4.768097092920001 2.38148358878 5.080756643260001
In -0.01119922708 7.14307968878 0.33450558826
Al 0.00434027208 2.37440646622 4.44215373174
Al 5.08297324966 4.7673588738 2.37862165748
In 0.33717082966 -0.0103716762 7.143052492480001
Al 4.443135170340001 0.0038785712 2.37275175752
Ga 2.38961793282 0.32059550238 4.7583853415
Ga 4.759218777920001 2.38876375378 0.31830957326
Al 0.32042387966 4.7592916488000006 2.3877115474800004
Al 7.13750016718 9.20574493762 4.762541268500001
Ga 4.76789932208 7.137576686219999 9.20261703674
Al 9.20669422034 4.7670487912 7.133215062520001
O 5.91105629551 3.72463541364 6.2426160819900005
O 3.62050220935 8.4804089636 8.044765452510001
O 8.37527292805 5.8125095934 1.4785405396900002
O 5.91096381709 5.798297129359999 8.03639445081
O 6.245650508370001 5.910246228569999 3.72111926806
O 8.049024331290001 3.62005542337 8.476737599420002
O 1.4828803935100003 8.375444094829998 5.81033126558
O 8.040240016829998 5.91010535323 5.79412839194
O 3.72499906882 6.245527871269999 5.90764930882
O 8.48032824086 8.047745643629998 3.61525672822
O 5.813955952940001 1.48287633557 8.373052468180001
O 5.79851198738 8.039701249529998 5.906358019780001
O 3.61606180449 5.80170502636 3.27831052801
O 5.90661589065 1.0459314763999998 1.4761611574900002
O 1.15184517195 3.7138308466 8.04238607031
O 3.61615428291 3.72804331064 1.48453215919
O 3.28146759163 3.61609421143 5.79980734194
O 1.4780937687100002 5.906285016629999 1.04418901058
O 8.044237706490001 1.15089634517 3.7105953444200006
O 1.48687808317 3.61623508677 3.72679821806
O 5.802119031180001 3.28081256873 3.61327730118
O 1.0467898591400002 1.4785947963699997 5.905669881780001
O 3.71316214706 8.043464104429999 1.14787414182
O 3.728606112620001 1.4866391904699998 3.61456859022
O 1.1317599755099998 8.486231513639998 1.4963650269900002
O 8.38204189935 3.7333731936 3.26612236751
O 3.62947050805 1.0347790434 6.242971374690001
O 1.14740476709 1.0351269093599995 3.27593114581
O 1.4998480883700005 1.13251567857 8.485550103060001
O 3.26972801129 8.381651523369998 3.7304865444200006
O 6.24442008351 3.62840832483 1.03168818058
O 3.27668096683 1.14693513323 1.03366508694
O 8.48653875882 1.49849210127 1.12900622382
O 3.734525820860001 3.27001509363 8.379687563220001
O 1.03465963294 6.24447243557 3.62680141318
O 1.0349529373800002 3.27653102953 1.14589471478
O 8.39535812449 1.04010892636 8.024561583009998
O 1.14507620065 5.7929672464 6.2548042424900006
O 5.89764759195 8.4915613966 3.27795523531
O 8.37971333291 8.491213530639998 6.2449954641900005
O 8.027270011630002 8.393824761429999 1.03537650694
O 6.25739008871 1.14468891663 5.79044006558
O 3.28269801649 5.897932115169999 8.48923842942
O 6.25043713317 8.37940530677 8.48726152306
O 1.04057934118 8.02784833873 8.39192038618
O 5.792592279140001 6.25632534637 1.14123904678
O 8.49245846706 3.28186800443 5.89412519682
O 8.492165162620001 6.24980941047 8.375031895220001
