80   
   
Al 1.60719837691 7.328556360220001 6.42436296812
Al 6.62610730191 7.313581335220001 6.408931418119999
Al 3.4623484820699995 1.27453821694 1.80760204186
Al 8.481257407069998 1.25956319194 1.79217049186
Ga 0.95804417521 3.02075647332 1.81294103032
Al 5.97695310021 3.00578144832 1.79750948032
Al 4.11150268377 5.582338103840001 6.4190239796599995
Al 9.130411608769998 5.567363078840001 6.403592429659999
Al 0.915160947135 5.661105755045001 -0.01050445311
Al 5.934069872135001 5.646130730045001 -0.02593600311
In 4.143305382865 2.937364979955001 4.60252521811
Al 9.162214307865002 2.9223899549550008 4.58709366811
Al 1.6291596894850002 1.3610581514950002 4.61240598679
Al 6.648068614484999 1.3460831264950002 4.596974436789999
Al 3.4574298105150003 7.249148223505002 9.218051948209999
Al 8.476338735515 7.234173198505002 9.20262039821
Al 0.87203662083 0.2674354383599999 9.22625324433
In 5.890945545829999 0.25246041336 9.21082169433
Al 4.21449663283 8.342747465359999 4.58572781633
In 9.23340555783 8.327772440359999 4.57029626633
Al 1.69382400953 4.562900684260001 4.59862075013
Al 6.71273293453 4.547925659260001 4.58318920013
Al 3.39270924413 4.04728221946 9.21336031053
In 8.411618169129998 4.03230719446 9.19792876053
Al 3.4640883921550003 1.350367793135 7.2582321366499984
In 8.482997317155 1.335392768135 7.242800586649999
Al 1.610520637425 7.254839199224999 2.63665156393
Al 6.629429562425 7.239864174224999 2.6212200139299995
Al 4.115232877405 5.646342189885001 2.63112431515
Al 9.134141802405 5.631367164885001 2.6156927651499995
Al 0.959376152175 2.958864802475001 7.263759385429998
Al 5.978285077175 2.943889777475001 7.248327835429999
O 4.202846193215 5.756535272655001 8.229260003229998
O 9.221755118215 5.741560247655001 8.21382845323
O 0.877724948405 2.851159675385001 3.62417237739
O 5.896633873405 2.836184650385001 3.60874082739
O 3.383049088065 1.4492445366050002 3.61836273813
O 8.401958013065 1.4342695116050002 3.60293118813
O 1.697522053555 7.158450411435001 8.23506964249
O 6.716430978555 7.143475386435001 8.219638092489998
O 2.652846121935 0.076988030895 5.802769519749999
O 7.671755046934998 0.062013005895 5.78733796975
O 2.412875985925 8.524510499225 1.1727680351099998
O 7.431784910924998 8.509535474225 1.15733648511
O 4.910041463184999 4.368170419645001 1.1707236022499998
O 9.928950388185 4.353195394645001 1.15529205225
O 0.155680644675 4.233328110475 5.804813952609999
O 5.174589569674999 4.218353085475 5.78938240261
O 0.099771580585 7.119662343445 1.10788871903
O 5.118680505584999 7.104687318445 1.0924571690299998
O 4.965500556555 1.481648416435 5.71983384111
O 9.984409481555 1.466673391435 5.704402291109999
O 2.459972450335 2.8147029316950003 5.72573761053
O 7.478881375335 2.7997279066950003 5.71030606053
O 2.6052996868050005 5.786607828185001 1.1019849496099998
O 7.624208611804998 5.771632803185001 1.08655339961
O 4.91761106726 7.18025919392 5.86929861241
O 9.93651999226 7.16528416892 5.85386706241
O 0.14861725766 1.4214505777200002 1.27253081151
O 5.16752618266 1.40647555272 1.25709926151
O 2.66240600956 2.8772513150200005 1.26281477061
O 7.681314934559999 2.8622762900200005 1.24738322061
O 2.40382231536 5.724458456620001 5.87901465331
O 7.42273124036 5.709483431620001 5.86358310331
O 1.840515076545 1.468045330015 7.99291553377
O 6.859424001545 1.453070305015 7.977483983769998
O 3.238537413895 7.139015893465 3.3616412396699995
O 8.257446338895 7.124040868465 3.34620968967
O 0.725003620195 5.769290935565 3.37123961787
O 5.743912545195 5.754315910565 3.3558080678699995
O 4.354048870244999 2.837770287915 7.983317155569998
O 9.372957795245002 2.822795262915 7.9678856055699985
O 4.22114421012 0.00665053304 8.30168091093
O 9.24005313512 -0.00832449196 8.28624936093
O 0.85982065588 8.601208713960002 3.68108959007
O 5.878729580879999 8.586233688960004 3.66565804007
O 3.35657820002 4.307147387340001 3.67923341753
O 8.375487125020001 4.2921723623400005 3.66380186753
O 1.72438666598 4.30071185966 8.303537083469998
O 6.74329559098 4.28573683466 8.288105533469999
