80   
   
Ga 7.2903470775 2.4258130325 7.272138902499998
Ga 2.4297649225 7.2732152024999985 7.287928087499998
Ga 7.2758244925 7.2877249225 2.4254276025
Ga 7.2839727825 7.280037067499999 7.279497682499998
Ga 2.4216166325 7.2809030575 2.4338580075
Ga 7.282198787499999 2.4335008875 2.4180688225
In 2.4361392175 2.4189911675 7.280569307499999
Ga 2.4279909275 2.4266790225 2.4264992275
In 7.28351923706 4.526681743119999 4.84828285546
In 2.41478879206 9.381771768119998 0.01000196046
In 7.27450404294 5.19454406688 -0.00478643046
Ga 4.85224062378 7.2809928366399985 4.52660107956
In 0.01255534878 2.41225908164 9.381742784559998
In -0.00085906878 7.27312542336 5.19518501544
Ga 4.52996986552 4.84905023068 7.280606762539999
In 9.38240373052 0.00933591568 2.41074749754
In 5.19651642948 -0.00424603068 7.27210144746
Ga 2.42844447294 5.18003434688 4.85771405454
Ga 7.28087833794 0.34032003188 -0.01214521046
Ga 2.42116308706 4.52754773312 0.00264318046
Ga 4.85972308622 2.42572325336 5.17939583044
Ga -0.00900735878 7.280813278359998 0.34111493544
Ga 0.00440705878 2.41994693664 4.52767270456
Ga 5.18199384448 4.857665859319999 2.42539014746
Ga 0.34230856948 -0.01106789568 7.2805318524599985
Ga 4.52819587052 0.00251405068 2.41917790254
In 2.43481876794 0.32581031188 4.85035527454
In 4.85157479622 2.43341110836 0.32532575044
In 0.32778598448 4.85084399432 2.43382055246
Ga 7.27714494206 9.38090577812 4.85564163546
Ga 4.86038891378 7.27330498164 9.380671159559999
Ga 9.38417772552 4.85587209568 7.2721763575399985
O 6.02492360419 3.79437584221 6.36384080872
O 3.69159329343 8.642434748529999 8.200376533199998
O 8.538184208769998 5.92205274627 1.5085953462
O 6.02520816861 5.90792688799 8.192179586879998
O 6.367188549300001 6.02217618767 3.7939469984
O 8.203578656260001 3.68702581711 8.641315031719998
O 1.51321871034 8.53619891609 5.92257852388
O 8.1959233591 6.02138930413 5.907151720999999
O 3.79773135108 6.36454369215 6.02210904185
O 8.645631296959998 8.200243964710001 3.68649189973
O 5.92477738384 1.50929630569 8.535191046869999
O 5.91176924312 8.19270626245 6.021200286549999
O 3.68704010581 5.91234024779 3.34215610128
O 6.02037041657 1.06428134147 1.5056203767999998
O 1.17377950123 3.78466334373 8.197401563799998
O 3.68675554139 3.79878920201 1.5138173231199998
O 3.3447751607 3.68453990233 5.9120499116
O 1.50838505374 6.019690272889999 1.0646818782799998
O 8.19874499966 1.1705171739099998 3.78341838612
O 1.5160403509 3.68532678587 3.798845189
O 5.91423235892 3.3421723978499998 3.68388786815
O 1.0663324130399998 1.50647212529 6.01950501027
O 3.78718632616 8.19741978431 1.1708058631299998
O 3.80019446688 1.5140098275499998 3.68479662345
O 1.15619315919 8.649465867209999 1.5255599137199998
O 8.544027158429998 3.80272043353 3.3305172681999995
O 3.69849893377 1.05331899127 6.363737051199999
O 1.1692263136099998 1.0545688429899998 3.3391811318799998
O 1.5275032743 1.15344243267 8.649088703399999
O 3.3348482112599998 8.54211584211 3.80303413672
O 6.36565257534 3.69648460109 1.0527192588799998
O 3.3399415041 1.16803125913 1.054153266
O 8.650165216079998 1.52482937715 1.15224977685
O 3.80594602196 3.33151020971 8.541633604729999
O 1.05604693884 6.36438633069 3.69691015187
O 1.05578738812 3.3393482174499995 1.1682018315499998
O 8.55577055081 1.0572502227899998 8.18043699628
O 1.1679365515699998 5.90399565647 6.3754796418
O 6.01346477623 8.65339709873 3.3422598587999994
O 8.54273739639 8.652147247009998 6.36681577812
O 8.1844604357 8.55327365733 1.0569082066
O 6.37711549874 1.16460024789 5.90296277328
O 3.34631113466 6.010231488909999 8.65327765112
O 6.3720222059 8.538684830869999 8.651843643999998
O 1.06179849392 8.18188671285 8.553747133149999
O 5.90601768804 6.375205880289999 1.1643633052699998
O 8.655916771160001 3.342329759309999 6.00908675813
O 8.656176321879999 6.36736787255 8.537795078449998
