80   
   
Al -0.038792675 -0.0589486125 6.0750742225
In -0.116378025 -0.1768458375 18.2252226675
Al 4.78946184 2.9352461775 6.1325125825
Al 4.71187649 2.8173489525 18.2826610275
Al 3.239569985 0.0444582575 6.0962554475
Al 3.161984635 -0.0734389675 18.2464038925
In 1.51109918 2.8318393075 6.111331357499999
Al 1.43351383 2.7139420825 18.2614798025
In 0.0 0.0 0.0
In -0.07758535 -0.117897225 12.150148445
Al 4.828254515 2.99419479 0.05743836
In 4.750669165000001 2.876297565 12.207586805
In 3.27836266 0.10340687 0.021181225
Al 3.20077731 -0.014490355 12.171329669999999
Al 1.549891855 2.89078792 0.036257135
Al 1.4723065050000002 2.772890695 12.18640558
In -0.0789167015349999 1.863059411451 3.0546464151485
Al -0.1565020515349999 1.745162186451 15.2047948601485
In -1.807387506535 4.650440461451 3.0697223251485
Al -1.8849728565350004 4.532543236451 15.2198707701485
In 3.199445958465 1.966466281451 3.0758276401485
In 3.121860608465 1.848569056451 15.225976085148499
Al 1.4709751534649995 4.753847331451 3.0909035501485
Al 1.3933898034649994 4.635950106451 15.2410519951485
In 1.5512232065349998 0.909831283549 9.1317591648515
In 1.4736378565349997 0.791934058549 21.281907609851494
Al -0.177247598465 3.697212333549 9.146835074851497
In -0.2548329484649999 3.579315108549 21.296983519851494
Al 4.829585866535001 1.0132381535489998 9.152940389851501
In 4.752000516535 0.8953409285489999 21.303088834851494
In 3.1011150615350003 3.800619203549 9.168016299851502
Al 3.0235297115350006 3.682721978549 21.318164744851494
O -0.0916329403999999 1.8437360562735 5.046055745284
O -0.1692182903999999 1.7258388312735 17.196204190283996
O -1.8201037454000004 4.6311171062735 5.061131655284
O -1.8976890954000003 4.5132198812735 17.211280100283997
O 3.1867297196 1.9471429262735 5.067236970283999
O 3.1091443696 1.8292457012735 17.217385415284
O 1.4582589145999991 4.7345239762735005 5.082312880284
O 1.3806735645999997 4.6166267512735 17.232461325284
O 1.5639394453999995 0.9291546387265 7.140349834715999
O 1.4863540954 0.8112574137265 19.290498279716
O -0.1645313596 3.7165356887265 7.155425744715999
O -0.2421167096 3.5986384637265 19.305574189716
O 4.842302105400001 1.0325615087265 7.161531059715999
O 4.7647167554 0.9146642837265 19.311679504716
O 3.1138313004000007 3.8199425587265 7.1766069697159995
O 3.036245950400001 3.7020453337265 19.326755414716
O 1.5385069676699998 0.8905079283715 11.123168494987
O 1.4609216176699995 0.7726107033715 23.273316939987
O -0.18996383733 3.6778889783715 11.138244404987
O -0.2675491873299999 3.5599917533715 23.288392849987
O 4.816869627670001 0.9939147983715 11.144349719987002
O 4.73928427767 0.8760175733714999 23.294498164987
O 3.0883988226700003 3.7812958483715 11.159425629987
O 3.0108134726700007 3.6633986233715 23.309574074987
O -0.0662004626699999 1.8823827666285 1.063237085013
O -0.1437858126699999 1.7644855416285 13.213385530013
O -1.7946712676700003 4.6697638166285 1.078312995013
O -1.8722566176700004 4.5518665916285 13.228461440013
O 3.21216219733 1.9857896366285 1.0844183100129998
O 3.1345768473299995 1.8678924116285 13.234566755013
O 1.4836913923299997 4.7731706866285 1.0994942200129998
O 1.4061060423299994 4.6552734616285 13.249642665013
O -0.0193963375 -0.02947430625 3.03753711125
O -0.0969816875 -0.14737153125 15.18768555625
O 4.8088581775 2.96472048375 3.09497547125
O 4.731272827500001 2.84682325875 15.24512391625
O 3.2589663225 0.07393256375 3.05871833625
O 3.1813809725 -0.04396466125 15.208866781249997
O 1.5304955175 2.86131361375 3.07379424625
O 1.4529101675 2.74341638875 15.223942691249997
O -0.0581890125 -0.08842291875 9.11261133375
O -0.1357743625 -0.20632014375 21.26275977875
O 4.7700655025000005 2.90577187125 9.17004969375
O 4.6924801525 2.78787464625 21.32019813875
O 3.2201736475 0.01498395125 9.13379255875
O 3.1425882975 -0.10291327375 21.28394100375
O 1.4917028425 2.80236500125 9.14886846875
O 1.4141174925 2.68446777625 21.29901691375
