80   
   
Al 7.2935105575 2.428623535 7.2852516299999985
Al 2.4294408575000004 7.283390735 7.294920854999998
Al 7.284668392500001 7.293292545 2.430948985
Al 7.2889799175 7.287988635 7.2904806299999985
Al 2.4251293325000005 7.288694644999999 2.43538921
Al 7.289199032500002 2.433927445 2.425719985
Al 2.4339714975000004 2.424025635 7.289691854999998
Al 2.4296599725000005 2.429329545 2.43016021
Al 7.289397558520002 4.5305212132 4.8577447355
Al 2.4210163335200003 9.390592323200002 0.0078823155
In 7.284469866480001 5.196698776800001 -0.0010757655
In 4.856761441300001 7.28870230588 4.53248676814
Al 0.0060645463 2.41943539588 9.391229638139999
In -0.0021912513 7.283383074119999 5.19782329686
In 4.531027051420001 4.8556944778 7.290388177799999
In 9.39078522642 0.0062311878 2.4211873078
Al 5.196455003580001 -0.0030453078 7.2845553072
In 2.42924233148 5.1867969668 4.8628961045
In 7.28900050648 0.3373336768 -0.0063047655
In 2.4255469735200004 4.5312272232 0.0026533155
In 4.8618784487 2.42861587412 5.18815407186
In -0.0065027763 7.28868698412 0.33829165186
In 0.0017530213 2.42473930588 4.53169799314
In 5.1876128385800016 4.861623702199999 2.4302526622
In 0.33691594358 -0.0076432078 7.288995532199999
In 4.531246166420001 0.0016332878 2.4256275328
In 2.4337729714800003 0.3274318668 4.8576671045
Al 4.8575669237 2.4339197841199995 0.32862242686
Al 0.3280737785800001 4.8570258022 2.4346928872
In 7.2848669185200015 9.389886313200002 4.8629737355
In 4.861072966300001 7.28339839588 9.39201841314
In 9.39056611142 4.8602923778000005 7.2859479528
O 6.0279421947200005 3.79876617428 6.37428871724
O 3.69245393932 8.65393001212 8.208832923759998
O 8.548615621880002 5.92514417588 1.5147279992399998
O 6.02758796908 5.91545508772 8.203752459759999
O 6.3734688656700005 6.027497511179999 3.80081213119
O 8.20714178443 3.69142716358 8.65616433159
O 1.51345369777 8.54745695842 5.92672723341
O 8.202535377129998 6.02691381682 5.91789840381
O 3.79956163624 6.3725057206 6.02920743185
O 8.655327643600002 8.206770774999997 3.69415812125
O 5.9250932994 1.5123872718 8.548998949149999
O 5.916617145760001 8.201631682599999 6.02923759775
O 3.69069769528 5.91855200572 3.3463521227599995
O 6.02618595068 1.06338816788 1.51180791624
O 1.1700242681200002 3.79217400412 8.20591284076
O 3.69105192092 3.80186309228 1.51688838024
O 3.34517102433 3.68982066882 5.91982870881
O 1.51149810557 6.025891016419999 1.06447650841
O 8.20518619223 1.16986122158 3.79391360659
O 1.51610451287 3.69040436318 3.80274243619
O 5.91907825376 3.344812459399999 3.69143340815
O 1.0633122464 1.510547405 6.02648271875
O 3.793546590600001 8.204930908199998 1.17164189085
O 3.80202274424 1.5156864974 3.69140324225
O 1.15956096972 8.65883728428 1.52442629724
O 8.552212114319998 3.80446672212 3.3396320537599995
O 3.69791872688 1.05587726588 6.37347086924
O 1.16826802408 1.05679599772 3.34343203976
O 1.52277197067 1.15823060118 8.65955500119
O 3.33876055943 8.551498273579998 3.80630191159
O 6.373211872770001 3.69799366842 1.0575263634099998
O 3.34321543213 1.16825472682 1.05757798381
O 8.659319811240001 1.5230424306 1.16000656185
O 3.8046307486000006 3.3375038649999995 8.552900991249999
O 1.0567120744 6.3724583818 3.69913652915
O 1.05729720076 3.3429725926 1.1689171777499998
O 8.559078920280001 1.05848089572 8.19621454276
O 1.16642777568 5.91285145788 6.38100878624
O 6.02072116312 8.66144091412 3.34716997076
O 8.55037186592 8.660522182280001 6.37720880024
O 8.19586791933 8.55908757882 1.06108583881
O 6.379879330570001 1.16581990642 5.91433892841
O 3.34542801723 6.019324511579999 8.663114476589998
O 6.37542445787 8.54906345318 8.66306285619
O 1.05932007876 8.1942757494 8.560634278149998
O 5.9140091414 6.379814315 1.16773984875
O 8.661927815600002 3.3448597981999995 6.021504310849999
O 8.661342689240001 6.3743455874 8.551723662249998
