40   
   
Ga 0.95677201537 5.78420157944 -0.01757368783
Ga 4.25139520963 2.99086577056 4.67860807283
Ga 1.67920353543 1.389398816 4.69601057655
Ga 3.5289636895700003 7.385668534 -0.03497619155
Ga 3.5581718335300003 1.3736092616 7.38828835139
Ga 1.67919734873 7.413366671239999 2.6774689887099994
Ga 4.228939254429999 5.75873989 2.6671546970899995
Ga 1.00842992783 3.02823604284 7.3986026430099985
Ga 1.68517512524 7.492381506519998 6.5379153918999995
Ga 3.54303664882 1.29086002752 1.8329810912
Ga 0.99426554392 3.0862908622 1.84298886554
Ga 4.23394623014 5.69695067184 6.5279076175599995
Ga 0.91314909525 0.27875954778 9.40124017797
Ga 4.345790870769999 8.517012968899998 4.65685606973
Ga 1.75806638377 4.6626811593 4.67916284993
Ga 3.50087358225 4.133091357379999 9.37893339777
O 4.33220606499 5.87641757556 8.37256778949
O 0.91594850915 2.9149566492 3.68935900441
O 3.46714661605 1.47153594812 3.67858493687
O 1.78100795809 7.319838276639999 8.383341857029999
O 2.72162496791 0.0735832862 5.907853257129999
O 2.49966787551 8.70683670208 1.18248168957
O 5.03144996641 4.4473349322 1.17783796763
O 0.18984287701 4.33308505608 5.912496979069999
O 5.06175898333 7.32688424894 5.96436581123
O 0.16044960091 1.45390917922 1.29545522117
O 2.73179182441 2.93217258702 1.27832092007
O 2.49041675983 5.84862084114 5.98150011233
O 0.13316490359 7.279786468239998 1.12306369309
O 5.08731394799 1.5003015734799998 5.81661695521
O 2.53563044069 2.87332024784 5.82754428139
O 2.68484841089 5.90676779388 1.11213636691
O 1.90343389657 1.50117276084 8.140887560089999
O 3.34197345511 7.289081144279998 3.41258097671
O 0.7712379821100002 5.89882026988 3.42952370451
O 4.47416936957 2.89143363524 8.123944832289999
O 4.32788563753 -0.00225534418 8.45108185571
O 0.92098117947 8.793920022179998 3.74266744929
O 3.4517924695700004 4.393614198859999 3.73833024463
O 1.7970743474300002 4.39805047914 8.455419060369998
