80   
   
Ga -0.0856217925 -0.0462569475 5.8535807075
Al -0.2568653775 -0.1387708425 17.560742122499995
Al 4.318381797500001 2.8705039275 5.9404922125
Ga 4.147138212500001 2.7779900325 17.647653627499995
Al 2.9586266575 0.1407219575 5.8995718425
Al 2.7873830725 0.0482080625 17.6067332575
Ga 1.2741333475 2.6835250225000005 5.8945010775
Al 1.1028897625 2.5910111275000003 17.6016624925
Al 0.0 0.0 0.0
Al -0.171243585 -0.092513895 11.707161415
Al 4.40400359 2.916760875 0.086911505
Al 4.232760005 2.82424698 11.79407292
Al 3.04424845 0.186978905 0.045991135
Al 2.873004865 0.09446501 11.75315255
Al 1.35975514 2.7297819700000003 0.04092037
Al 1.188511555 2.637268075 11.748081785
Al -0.1510461283109998 1.7342241184155 2.9387390270965
Al -0.3222897133109998 1.6417102234155 14.645900442096499
Al -1.835539438311 4.2770271834155 2.9336682620965
Al -2.006783023311 4.1845132884155 14.6408296770965
Al 2.8932023216890004 1.9212030234155 2.9847301620965
Al 2.7219587366890003 1.8286891284155 14.691891577096499
Al 1.208709011689 4.4640060884155 2.9796593970965
Al 1.037465426689 4.3714921934155 14.6868208120965
Al 1.339557683311 0.9030439565845 8.809342757903499
Al 1.168314098311 0.8105300615845 20.516504172903495
Al -0.3449356266889996 3.4458470215845 8.804271992903502
Al -0.5161792116889996 3.3533331265845 20.511433407903496
Al 4.383806133311 1.0900228615845 8.8553338929035
Al 4.212562548311 0.9975089665845 20.5624953079035
Al 2.6993128233110006 3.6328259265845 8.8502631279035
Al 2.5280692383110006 3.5403120315845 20.5574245429035
O -0.1791129518924998 1.719061091025 4.857542783015
O -0.3503565368924998 1.626547196025 16.564704198015
O -1.8636062618925 4.261864156025 4.852472018015
O -2.0348498468925 4.169350261025 16.559633433014994
O 2.8651354981075 1.906039996025 4.903533918015
O 2.6938919131075 1.813526101025 16.610695333015
O 1.1806421881075 4.448843061025 4.898463153015
O 1.0093986031075 4.3563291660250005 16.605624568015003
O 1.3676245068925 0.918206983975 6.890539001984999
O 1.1963809218925 0.825693088975 18.597700416985
O -0.3168688031074995 3.461010048975 6.885468236984999
O -0.4881123881074996 3.368496153975 18.592629651985
O 4.4118729568925 1.105185888975 6.936530136985
O 4.240629371892501 1.012671993975 18.643691551984997
O 2.727379646892501 3.647988953975 6.931459371985
O 2.556136061892501 3.555475058975 18.638620786984998
O 1.3114908597295 0.887880929194 10.728146513822
O 1.1402472747295 0.795367034194 22.435307928822
O -0.3730024502704996 3.430683994194 10.723075748822
O -0.5442460352704995 3.338170099194 22.430237163822
O 4.3557393097295005 1.074859834194 10.774137648822
O 4.1844957247295005 0.982345939194 22.481299063822
O 2.671245999729501 3.617662899194 10.769066883822001
O 2.500002414729501 3.525149004194 22.476228298822
O -0.1229793047294998 1.749387145806 1.019935271178
O -0.2942228897294998 1.656873250806 12.727096686178
O -1.8074726147295 4.292190210806 1.014864506178
O -1.9787161997295 4.199676315806 12.722025921178
O 2.9212691452705 1.936366050806 1.065926406178
O 2.7500255602705 1.843852155806 12.773087821178
O 1.2367758352705 4.479169115806 1.060855641178
O 1.0655322502705 4.386655220806 12.768017056178
O -0.04281089625 -0.02312847375 2.92679035375
O -0.21405448125 -0.11564236875 14.63395176875
O 4.3611926937500005 2.89363240125 3.01370185875
O 4.1899491087500005 2.80111850625 14.72086327375
O 3.00143755375 0.16385043125 2.97278148875
O 2.83019396875 0.07133653625 14.67994290375
O 1.31694424375 2.7066534962500004 2.96771072375
O 1.14570065875 2.61413960125 14.67487213875
O -0.12843268875 -0.06938542125 8.780371061249998
O -0.29967627375 -0.16189931625 20.48753247625
O 4.27557090125 2.84737545375 8.86728256625
O 4.10432731625 2.75486155875 20.57444398125
O 2.91581576125 0.11759348375 8.82636219625
O 2.74457217625 0.02507958875 20.53352361125
O 1.23132245125 2.6603965487500005 8.821291431249998
O 1.06007886625 2.5678826537500004 20.52845284625
