80   
   
Al 1.5792229860199998 7.215205461140002 6.3408294325500005
Al 6.51692866602 7.199576356140001 6.32822136755
Al 3.40562871274 1.2538688031400005 1.7852283967300002
Al 8.34333439274 1.23823969814 1.7726203317300002
Al 0.9421594717 2.97445878016 1.7901649276100002
Al 5.8798651517 2.95882967516 1.7775568626100002
In 4.042692227060001 5.4946154841200014 6.33589290167
In 8.980397907059999 5.478986379120001 6.32328483667
Al 0.90138599056 5.576441149285 -0.006711378615
Al 5.839091670559999 5.560812044285001 -0.019319443615
Al 4.07443343944 2.8901575657150005 4.542946313615
Al 9.012139119439999 2.874528460715001 4.530338248615
Al 1.60067672712 1.3378202463750002 4.5504959911550005
Al 6.538382407119999 1.3221911413750005 4.537887926155
Al 3.39806724288 7.135061588625001 9.096964563845
Al 8.33577292288 7.119432483625 9.084356498845
Al 0.8532357141 0.25802373504 9.09979314516
Al 5.7909413941 0.24239463004 9.08718508016
Al 4.14546240682 8.21484553372 4.5294449586
Al 9.08316808682 8.19921642872 4.516836893600001
Al 1.6648829156199998 4.4918621318200005 4.5387277075000005
Al 6.60258859562 4.47623302682 4.5261196425
Al 3.3338152053 3.98100713694 9.090510396260001
Al 8.271520885299998 3.96537803194 9.07790233126
Al 3.40455428614 1.325455421335 7.160835178245001
Al 8.34225996614 1.309826316335 7.148227113245
Al 1.58442382982 7.144749804545 2.605243262635
Al 6.52212950982 7.129120699545 2.592635197635
Al 4.04831949454 5.559825207685 2.600198414795
Al 8.98602517454 5.544196102685 2.587590349795
Al 0.94065862142 2.9103800181950006 7.165880026085
Al 5.87836430142 2.894750913195 7.153271961085001
O 4.131659463059999 5.665163006055001 8.121343389885
O 9.06936514306 5.649533901055 8.108735324885
O 0.8621786553799999 2.8063742412650003 3.5763148824350006
O 5.79988433538 2.790745136265 3.5637068174350004
O 3.32671395562 1.4249477146450005 3.571107559155001
O 8.264419635620001 1.409318609645 3.5584994941550003
O 1.6671241628200002 7.046589532675 8.126550713165
O 6.604829842819999 7.030960427675001 8.113942648165
O 2.60695488098 0.072058578695 5.724280752565001
O 7.54466056098 0.056429473695 5.711672687565001
O 2.37477908034 8.396161181265 1.1626503923950002
O 7.31248476034 8.380532076265 1.1500423273950002
O 4.83078590698 4.301427051445001 1.159609408315
O 9.76849158698 4.285797946445 1.147001343315
O 0.15094805434 4.1667927085150005 5.727321736645001
O 5.088653734339999 4.151163603515 5.714713671645001
O 0.0988802285 7.012730157965 1.096670546175
O 5.036585908499999 6.997101052964999 1.084062481175
O 4.882486940180001 1.4553890720750002 5.644480988865
O 9.820192620179998 1.439759967075 5.631872923865
O 2.4177384281 2.7689829086150004 5.649742470625
O 7.3554441081 2.7533538036150005 5.637134405625001
O 2.56362874058 5.699136321425001 1.091409064415
O 7.501334420579998 5.683507216425001 1.078800999415
O 4.83632976328 7.0688541676 5.795054115030001
O 9.77403544328 7.0532250626 5.782446050030001
O 0.14581683976 1.39947868852 1.2558790910900002
O 5.08352251976 1.3838495835200002 1.2432710260900002
O 2.61920043136 2.8331088002200007 1.2484241908900002
O 7.55690611136 2.8174796952200003 1.2358161258900002
O 2.3629461716799995 5.6352240559 5.802509015230001
O 7.300651851679999 5.619594950900001 5.789900950230001
O 1.80689515372 1.4412437392150002 7.884619007755002
O 6.744600833719999 1.4256146342150002 7.872010942755
O 3.18570503956 7.029954219625 3.3210330810850004
O 8.12341071956 7.014325114625 3.308425016085
O 0.7125879627600001 5.681114970525001 3.3284202831850003
O 5.65029364276 5.665485865525 3.315812218185
O 4.28001223052 2.7900829883150005 7.877231805655
O 9.21771791052 2.7744538833150005 7.864623740655
O 4.148580685959999 0.00106796248 8.189555945850001
O 9.08628636596 -0.01456114252 8.176947880850001
O 0.84557837604 8.47055724852 3.6356594851500006
O 5.78328405604 8.45492814352 3.62305142015
O 3.301158779 4.240157738540001 3.632726818030001
O 8.238864458999998 4.22452863354 3.6201187530300007
O 1.693000283 4.23146747246 8.192488612970001
O 6.6307059630000005 4.21583836746 8.17988054797
