80   
   
Al -0.0738559675 -0.05323275 5.91561223
Al -0.2215679025 -0.15969825 17.74683669
In 4.4402998625 2.908152965 5.99689388
Al 4.2925879275 2.801687465 17.82811834
Al 3.0382595275 0.124319435 5.95545401
In 2.8905475925 0.017853935 17.78667847
Al 1.3281843675 2.7306007800000005 5.9570521
Al 1.1804724325 2.6241352800000004 17.78827656
Al 0.0 0.0 0.0
In -0.147711935 -0.1064655 11.83122446
In 4.51415583 2.961385715 0.08128165
Al 4.366443895 2.854920215 11.91250611
Al 3.112115495 0.177552185 0.03984178
In 2.96440356 0.071086685 11.87106624
Al 1.402040335 2.7838335300000003 0.04143987
Al 1.2543284 2.67736803 11.87266433
Al -0.1395959909224999 1.7699089128375003 2.972150667068
Al -0.2873079259224999 1.6634434128375002 14.803375127068
Al -1.8496711509225 4.3761902578375 2.973748757068
Al -1.9973830859225 4.2697247578375 14.804973217068
Al 2.9725195040775 1.9474610978375 3.011992447068
Al 2.8248075690775 1.8409955978375 14.843216907068
Al 1.2624443440774995 4.553742442837501 3.013590537068
Al 1.1147324090774997 4.4472769428375 14.844814997068
Al 1.3939243909224996 0.9074591171625 8.900513662932
Al 1.2462124559224996 0.8009936171625 20.731738122932
Al -0.3161507690775001 3.5137404621625 8.902111752931999
Al -0.4638627040775001 3.4072749621625 20.733336212932
Al 4.5060398859225 1.0850113021625 8.940355442932
Al 4.3583279509225 0.9785458021625 20.771579902932
Al 2.7959647259225004 3.6912926471625 8.941953532932
Al 2.6482527909225007 3.5848271471625 20.773177992932
O -0.1638059770689999 1.7524592173875002 4.911288356061999
O -0.3115179120689999 1.6459937173875 16.742512816062
O -1.873881137069 4.358740562387499 4.912886446062
O -2.021593072069 4.2522750623875 16.744110906061998
O 2.948309517931 1.9300114023875 4.951130136062
O 2.800597582931 1.8235459023875 16.782354596062
O 1.2382343579309998 4.5362927473875 4.952728226062
O 1.0905224229309998 4.4298272473875 16.783952686061998
O 1.4181343770689996 0.9249088126125 6.961375973937999
O 1.2704224420689996 0.8184433126124999 18.792600433938
O -0.2919407829310001 3.5311901576125 6.962974063937999
O -0.4396527179310001 3.4247246576125 18.794198523938
O 4.5302498720690005 1.1024609976125 7.001217753938
O 4.382537937069 0.9959954976125 18.832442213938
O 2.820174712069001 3.7087423426125 7.002815843938
O 2.6724627770690006 3.6022768426125 18.834040303938
O 1.3697144047759997 0.8900094217124999 10.839651351926
O 1.2220024697759997 0.7835439217124999 22.670875811926
O -0.3403607552240001 3.4962907667125003 10.841249441926
O -0.4880726902240001 3.3898252667125 22.672473901926
O 4.481829899776001 1.0675616067125 10.879493131926
O 4.334117964776 0.9610961067125 22.710717591926
O 2.7717547397760005 3.673842951712501 10.881091221926
O 2.6240428047760007 3.5673774517125003 22.712315681926
O -0.1153860047759999 1.7873586082875002 1.0330129780739998
O -0.2630979397759999 1.6808931082875005 12.864237438074
O -1.825461164776 4.3936399532875 1.034611068074
O -1.973173099776 4.287174453287499 12.865835528074
O 2.996729490224 1.9649107932875 1.072854758074
O 2.849017555224 1.8584452932875 12.904079218074001
O 1.286654330224 4.5711921382875005 1.074452848074
O 1.138942395224 4.4647266382875 12.905677308074
O -0.03692798375 -0.026616375 2.957806115
O -0.18463991875 -0.133081875 14.789030575
O 4.47722784625 2.93476934 3.039087765
O 4.32951591125 2.82830384 14.870312225
O 3.07518751125 0.15093581 2.997647895
O 2.92747557625 0.04447031 14.828872355
O 1.36511235125 2.757217155 2.999245985
O 1.2174004162499998 2.6507516550000005 14.830470445
O -0.11078395125 -0.079849125 8.873418345
O -0.25849588625 -0.186314625 20.704642805
O 4.40337187875 2.88153659 8.954699995
O 4.25565994375 2.77507109 20.785924455
O 3.00133154375 0.09770306 8.913260124999999
O 2.85361960875 -0.00876244 20.744484585
O 1.29125638375 2.7039844050000004 8.914858215
O 1.14354444875 2.5975189050000003 20.746082675
