40   
   
Ga 7.865628086099481 -0.1156748728955463 13.663159111814041
Ga 5.1272507 -0.040755595 -0.19712034
Al 9.268274845150518 1.3917066478955464 1.990820490685956
Ga 4.141024145150518 1.4324622428955465 2.187940830685956
Ga 4.86124602875 -0.05943994 5.2778899875
Ga 1.5021910764005186 -0.0281174671044537 4.192634633185956
Ga -0.354672895 -0.02491246 7.300013769999999
Ga 8.30896920484948 -0.0845342978955463 4.538141899314043
In 2.19549195 1.4294391350000002 7.120323409999999
Al 7.32274265 1.3886835400000002 6.92320307
Ga 8.042964533599482 -0.1032186428955463 10.013152226814043
In 4.68390958125 -0.07189617 8.9278968725
Ga 2.8270456098494807 -0.0686911628955463 12.03527600931404
Al 1.2361864051505185 -0.0468018121044537 9.667644960685955
Ga 5.3772104548494815 1.3856604321044537 11.855585649314042
Al 10.50446115484948 1.344904837104454 11.658465309314042
O 3.426236083850001 -0.0319489228 1.1069605097
O 1.0623966866005186 -0.0590089175044537 13.244651707985955
O 5.87439433505 1.3642286084 0.9344577641
O 11.000568194649999 1.4414513648000002 0.7308470089000001
O 8.482758923399482 -0.0723271924955463 0.9611351520140438
O 6.118919526150001 -0.0993871872 13.0988263503
O 8.77109096495 1.4131384716000002 12.9119483759
O 3.64491710535 1.3359157152 13.1155591311
O 6.6079545886994815 -0.0757276256955463 5.842222749014043
O 4.95346098145 -0.0529627004 3.3798864073
O 9.05611283989948 1.3204499055044538 5.669720003414043
O 3.927785299499481 1.479183851904454 5.860349928214044
O 1.4099761237005186 -0.0345947067044537 6.090638213385956
O 10.009983820999485 -0.0933409700955463 3.234061049614044
O 12.662155259799485 1.419184688704454 3.0471830752140434
O 7.535981400199482 1.3419619323044538 3.250793830414044
O -0.4648282109994812 -0.0379951399044537 10.971725810385955
O 8.135179486299482 -0.0967414032955463 8.115148646614044
O 1.9833300402005185 1.3581823912955464 10.799223064785956
O 7.10950389980052 1.4354051476955467 10.595612309585956
O 4.59169462855 -0.0783734096 10.8259004527
O 2.937201021300518 -0.0556084843044537 8.363564110985955
O 5.58937246010052 1.4569171744955467 8.176686136585957
O 10.717700000500516 1.2981832280955463 7.9860562117859555
