80   
   
Ga 10.786734135175 5.10048e-06 1.1785354476599998
Ga 10.786723970174998 3.0616009654800003 1.17855498266
Al 22.983339560175 1.132048e-05 1.17645578766
Al 22.983329395175 3.06160718548 1.17647532266
Al -0.0534467401750001 -1.58048e-06 4.5775598123400005
Al -0.053456905175 3.0615942845200004 4.57757934734
Al 12.143158684824998 4.63952e-06 4.57548015234
In 12.143148519824996 3.0616005045200003 4.575499687340001
Ga 4.688426340174999 1.53079992298 1.1795850451599998
In 4.688416175174999 4.59239578798 1.17960458016
Ga 16.885031765175 1.53080614298 1.17750538516
Al 16.885021600175 4.5924020079800005 1.17752492016
Ga 6.044850889824999 1.53079946202 4.576529749840001
Al 6.044840724824999 4.59239532702 4.5765492848400005
In 18.241456314824998 1.53080568202 4.57445008984
Ga 18.241446149825 4.59240154702 4.57446962484
Ga 9.253503911345 1.53080131132 3.94836876856
Al 9.253493746345 4.59239717632 3.94838830356
Al 21.450109336344998 1.53080753132 3.94628910856
Ga 21.450099171345 4.59240339632 3.946308643560001
Al 1.479773318655 1.53079807368 1.80774602644
Al 1.479763153655 4.59239393868 1.80776556144
Al 13.676378743655 1.53080429368 1.80566636644
Ga 13.676368578655 4.59240015868 1.80568590144
Ga 3.155206281345 2.6882e-07 3.94939883106
Ga 3.155196116345 3.06159613382 3.94941836606
Ga 15.351811706344998 6.48882e-06 3.94731917106
Al 15.351801541344999 3.06160235382 3.947338706060001
Al 7.578081113655 3.25118e-06 1.80669642894
Al 7.578070948654998 3.06159911618 1.80671596394
In 19.774686538655 9.47118e-06 1.80461676894
In 19.774676373655 3.06160533618 1.80463630394
O 9.447122707364999 3.96404e-06 2.5146025612200003
O 9.447112542364998 3.0615998290400004 2.51462209622
O 21.643728132365 1.018404e-05 2.51252290122
O 21.643717967365 3.0616060490400003 2.51254243622
O 1.2861646876349997 -4.4404e-07 3.24149269878
O 1.2861545226349995 3.0615954209600003 3.2415122337799995
O 13.482770112635 5.77596e-06 3.2394130387799995
O 13.482759947635 3.06160164096 3.23943257378
O 3.3488149123650004 1.53079878654 2.51565215872
O 3.3488047473650004 4.59239465154 2.51567169372
O 15.545420337364998 1.53080500654 2.51357249872
O 15.545410172365 4.59240087154 2.51359203372
O 7.384462317635 1.53080059846 3.24046263628
O 7.384452152634998 4.59239646346 3.24048217128
O 19.581067742635003 1.53080681846 3.23838297628
O 19.581057577635 4.5924026834600005 3.23840251128
O 8.881812483174999 2.7907e-06 5.1230391627000005
O 8.881802318174998 3.0615986557 5.1230586977
O 21.078417908175002 9.0107e-06 5.1209595027
O 21.078407743175003 3.0616048757 5.1209790377
O 1.851474911825 7.293e-07 0.6330560973
O 1.851464746825 3.0615965943 0.6330756323
O 14.048080336825 6.9493e-06 0.6309764373
O 14.048070171825 3.0616028143 0.6309959723
O 2.783504688175 1.5307976132 5.1240887602
O 2.783494523175 4.5923934782 5.1241082952
O 14.980110113175002 1.5308038332 5.1220091002000006
O 14.980099948175 4.5923996982 5.1220286352
O 7.9497725418249985 1.5308017718000002 0.6320260348
O 7.9497623768249985 4.5923976368 0.6320455698
O 20.146377966825 1.5308079918000002 0.6299463748
O 20.146367801824997 4.5924038568 0.6299659098
O -1.03846395709 1.5307959512800002 4.27832541442
O -1.03847412209 4.59239181628 4.27834494942
O 11.15814146791 1.5308021712800002 4.27624575442
O 11.15813130291 4.59239803628 4.27626528942
O 11.77174118709 1.5308034337200005 1.47778938058
O 11.771731022089998 4.59239929872 1.47780891558
O 23.96834661209 1.5308096537200002 1.47570972058
O 23.96833644709 4.59240551872 1.47572925558
O 5.05984383791 1.12878e-06 4.27727581692
O 5.05983367291 3.0615969937800003 4.27729535192
O 17.25644926291 7.34878e-06 4.27519615692
O 17.25643909791 3.06160321378 4.27521569192
O 5.67344355709 2.39122e-06 1.47881944308
O 5.67343339209 3.06159825622 1.47883897808
O 17.870048982089997 8.61122e-06 1.47673978308
O 17.87003881709 3.06160447622 1.47675931808
