40   
   
In -1.12200102 -0.02750668375 13.27736498375
In -0.16028586 -0.00392952625 1.89676642625
In 2.4857379968730946 -0.0877316887453117 11.79721734057882
Ga 6.734620533126906 -0.1322385912546883 2.730004289421177
In 5.933191233126905 -0.1518862225046883 12.213836420671177
In 3.2871672968730934 -0.0680840574953117 2.3133852093288234
In 5.251322705 -0.094267035 -0.32345489
Ga 3.979263528126905 1.5911896374953118 4.794428795671176
In 5.302275416873093 1.5492885575046884 9.74465410432882
In 10.553598121873092 1.4550215225046883 9.421199214328823
In 9.230586233126903 1.4969226024953115 4.470973905671176
In 1.3230119681269052 -0.0419010825046883 4.950225605671176
In 7.897346561873093 -0.1780691974953117 9.576996024328823
In 2.8063097040502254 -0.0798726365596738 8.003684639820138
In 6.414048825949775 -0.1400976434403262 6.523536990179863
In -0.64114344 -0.015718105 7.587065704999999
O 10.267121736326905 1.5136905972453116 13.238103343321177
O 9.519509835273094 1.5726714667546884 0.6545442274788231
O 4.265739913673095 1.5325205627546885 0.9775246666788232
O 5.013351814726906 1.4735396932453115 13.561083782521177
O -0.9553037256 -0.02341997645 11.30472790045
O -0.3269831544 -0.00801623355 3.86940350955
O 7.504620113926905 -0.1847237515546883 13.400132025721176
O 1.7157384160730944 -0.0352465284453117 1.1270896042788232
O 2.3190406896502247 -0.0918183963596738 13.769854575620137
O 6.901317840349774 -0.1281518836403262 0.7573670543798627
O 6.911763862749774 1.4487183980596736 10.877975726279862
O 2.3673278656502257 1.5573418579403262 3.6606327229201368
O 7.621097787250226 1.5974927619403263 3.337652283720137
O 12.165533784349774 1.4888693020596735 10.554995287079862
O 4.361762365149774 -0.1190486931403262 11.027540663879863
O 4.858596164850225 -0.1009215868596738 3.499680966120137
O 3.6927870632 1.64985871475 8.611332627649999
O 5.591199098400001 1.62503741925 5.92822472315
O 10.8400745868 1.39635244525 5.604295382349999
O 8.9416625516 1.42117374075 8.28740328685
O 2.973007011273094 -0.0757859289453117 6.031047404778823
O 6.247351518726905 -0.1441843510546883 8.496174225221177
O 0.9302854408 -0.04855563405 8.773361310049998
O 8.2900730892 -0.17141464595 5.75386031995
