80   
   
In 7.212433359999999 2.4013911825000003 7.1948406725
In 2.4028753549999995 7.1966533625 7.2099880525
Ga 7.1974512 7.2109834775 2.3992565275
Ga 7.205468535 7.2038691525 7.201750822499999
Ga 2.39485802 7.2037676875 2.4074937575
Ga 7.204416025 2.4085055075 2.3923463775
Ga 2.40984018 2.3941753925 7.2030779025
In 2.401822845 2.4012897175 2.4005836075
In 7.2054158881 4.47961882804 4.7965787098
Ga 2.3878405481 9.28199533304 0.0092317948
In 7.1964513369 5.139870156960001 -0.0049758048
Al 4.79961809872 7.2043021941 4.47805267794
Al 0.01200707872 2.3874941091 9.28187405294
Al -0.00188472372 7.1961188559 5.13942913206
Ga 4.48107802126 4.79853159878 7.20297449414
In 9.28261869126 0.01038374378 2.38533281914
In 5.14119551874 -0.00296502378 7.19494408086
In 2.4018754919 5.125540041960001 4.8057557202
In 7.2034161619 0.3373921869600001 -0.0118859548
Al 2.3948053731 4.47951736304 0.0023216448
Al 4.80767328128 2.4008566759 5.12428175206
Al -0.00990205872 7.2032331809 0.33693483706
In 0.00398974372 2.3946084341 4.47937975794
Ga 5.12621335874 4.80662727122 2.39935993586
In 0.33860233874 -0.01018081378 7.20318131086
Al 4.48002551126 0.00316795378 2.39357004914
Al 2.4088403169 0.32306207196 4.7988455702
Al 4.79965594628 2.4079710009 0.32178745706
In 0.32362017874 4.79941148122 2.40759716586
Ga 7.1984510631 9.28209679804 4.8034888598
Ga 4.80763543372 7.1971878691 9.280546972940002
Al 9.28367120126 4.80574738878 7.19473726414
O 5.960287793569999 3.75515135774 6.29606208714
O 3.65109276013 8.55149076234 8.11266396246
O 8.446582248470001 5.85989828846 1.49229725794
O 5.96026564783 5.84635676646 8.104812767459999
O 6.2986354251300005 5.95897639713 3.75331187893
O 8.115770911809998 3.64938578357 8.54939210345
O 1.4959160941899998 8.44594730583 5.85902989955
O 8.107906018869999 5.958587688470001 5.84410219307
O 3.75643151176 6.29767208142 5.95771752874
O 8.55255759676 8.114034464139998 3.64688125354
O 5.861495977439999 1.49464074686 8.44451297986
O 5.847743364039999 8.106549882579998 5.95672431286
O 3.64700358643 5.85000751226 3.3062723428599994
O 5.95619861987 1.05366810766 1.48967046754
O 1.1607091315299998 3.74526058154 8.11003717206
O 3.64702573217 3.75880210354 1.49752166254
O 3.3086559548699994 3.64618247287 5.84902255107
O 1.4915204681899998 5.95577308643 1.05294232655
O 8.11137528581 1.15921156417 3.74330453045
O 1.4993853611299996 3.64657118153 3.75823223693
O 5.850859868239999 3.30748678858 3.64461690126
O 1.05473378324 1.49112440586 5.95545317646
O 3.74579540256 8.110518123139999 1.15782145014
O 3.75954801596 1.49860898742 3.64561011714
O 1.1427124535699995 8.55752786274 1.5087151721399998
O 8.452633430129998 3.7633429073400007 3.29502228746
O 3.65897122847 1.04309020346 6.29611863294
O 1.1566199578299998 1.0437773314599998 3.3036455524599995
O 1.51102440513 1.14216831213 8.55713325393
O 3.298195571809999 8.45176228857 3.76204518845
O 6.29745676419 3.65779945083 1.04138822455
O 3.3042603288699994 1.15600825347 1.04293497807
O 8.55797218176 1.50952422642 1.14007585374
O 3.76494657676 3.29722637914 8.45070262854
O 1.04392063744 6.297017251860001 3.65716606486
O 1.04409767404 3.30397044758 1.1555570978599998
O 8.46457892643 1.0476310072599997 8.093619257859999
O 1.15465794987 5.841815962659999 6.30731214254
O 5.94832015153 8.56206866654 3.30621579706
O 8.45067142217 8.56138153854 6.29868887754
O 8.09626697487 8.46299055787 1.04520117607
O 6.30909580819 1.15339658143 5.84028924155
O 3.3098346158099994 5.9473594191700005 8.560946205449998
O 6.3030310511300005 8.44915061653 8.55939945193
O 1.04931919824 8.09563464358 8.46225857626
O 5.84234480324 6.30793249086 1.15163180146
O 8.56337074256 3.30814161814 5.94516836514
O 8.56319370596 6.30118842242 8.44677733214
