40   
   
Al 8.468624237320112 -0.0465470202718156 13.96816873605026
Ga 6.841368548929888 0.0123668015218156 2.3670102701997378
Ga 5.144874115 0.019609355 -0.059643335
Al 9.40820094392989 1.5270511765218155 2.345712865199737
Al 4.263326828929888 1.5074418215218155 2.405356200199737
In 5.10333092875 -0.01139340625 5.44505966875
In 1.682646705179888 -0.0175768072281844 4.261554606449738
Al 8.53786288107011 0.0051242484781844 4.793663729800262
In 2.51144148 1.47334736 7.318306599999999
Ga 7.656315595 1.492956715 7.258663265
Ga 8.496319694820112 -0.0258785127718156 10.298366733550262
Al 5.07563547125 -0.03206191375 9.11486167125
Al 3.337597851070112 -0.0558221215218156 12.192911069800262
In 1.641103518929888 -0.0485795684781844 9.766257610199736
Al 5.904430246070112 1.4588622534781843 12.17161366480026
In 11.049304361070112 1.4784716084781844 12.11197032980026
O 3.489097942650001 0.00630706885 1.20717521305
O 1.613961970579888 -0.0688347058281844 13.362663572649737
O 5.953257041850001 1.4604040688500002 1.18672970425
O 11.09768278385 1.6004037996500002 1.12776831025
O 8.565004429420112 0.0253793858281844 1.1972577673502622
O 6.68986845735 -0.04976238885 13.35274612695
O 9.35937414815 1.52550936115 13.33059682575
O 4.21494840615 1.38550963035 13.38955821975
O 6.882086708720112 -0.0081780376718156 6.060482277850262
O 5.11773256665 -0.00064578235 3.53676262745
O 9.346245807920113 1.4459189623281845 6.040036769050262
O 4.200923319920113 1.546699983128185 6.100362045050262
O 1.668245067279888 -0.0283244311281844 6.169851647749738
O 10.193639053420112 0.0184265346281844 3.526845181750262
O 12.863144744220111 1.5936982846281846 3.5046958805502615
O 7.718719002220112 1.4536985538281846 3.5636572745502626
O -0.014672653420112 -0.0618818546281844 11.033076158249738
O 8.510721332720111 -0.0151308888718156 8.390069692250261
O 2.449486445779888 1.3922151453718157 11.012630649449738
O 7.59391218777989 1.5322148761718155 10.953669255449736
O 5.06123383335 -0.04280953765 11.023158712550002
O 3.296879691279888 -0.0352772823281844 8.499439062149738
O 5.966385382079888 1.5399944676718158 8.477289760949738
O 11.111707870079886 1.4392134468718156 8.41696448494974
