40   
   
Ga 8.23367352159579 -0.0071610141561068 13.609889693111997
Al 5.0009805 0.01650021 -0.03918758
Al 9.146024749654208 1.4853196466561067 2.310259375638004
Al 4.14504424965421 1.4688194366561067 2.349446955638004
Ga 4.96134373875 0.0029370675 5.3119785662500005
Ga 1.6361649409042096 -0.0050490408438932 4.148955634388004
Ga -0.052849015 -0.01808419 7.134888195
Ga 8.29973479034579 0.0154442233438932 4.691279449361996
Al 2.44281804 1.45126324 7.119101565
Al 7.44379854 1.46776345 7.079913985
Ga 8.26009802909579 0.0018810808438932 10.042445595611996
Al 4.93491923125 -0.0061050275 8.87942266375
Ga 3.2459052753457898 -0.0191401766561068 11.865355224361997
Ga 1.5965281796542097 -0.0186121833438932 9.500121780638004
Ga 5.7415723303457895 1.4502072533438932 11.849568594361997
Ga 10.74255283034579 1.4667074633438932 11.810381014361997
O 3.3916824074500003 0.0081458305 1.18628343875
O 1.5706321623042097 -0.0274734364438932 12.996216996188004
O 5.787522780250001 1.4187193633 1.1711282739500002
O 10.78811742465 1.5521073593 1.13224526675
O 8.32563080769579 0.0243054764438932 1.195184233811996
O 6.50458056255 -0.0113137905 13.005117791250001
O 9.100074299750002 1.5168075367 12.98869969605
O 4.09947965535 1.3834195407 13.02758270325
O 6.690436697795789 0.0070898438438932 5.916750468111996
O 4.97508448265 0.0076389569 3.45690763555
O 9.08627707059579 1.4176633766438933 5.901595303311996
O 4.08491071499579 1.5180509526438932 5.941087456111996
O 1.6224241970042097 -0.0097509302438932 6.0040265650880045
O 9.90903288289579 0.0237986028438932 3.465808430611996
O 12.50452662009579 1.5519199300438933 3.449390335411996
O 7.5039319756957905 1.418531934043893 3.488273342611996
O -0.0127699128957901 -0.0269665628438932 10.725592799388004
O 8.27383877299579 0.0065829702438932 8.187374664911998
O 2.3830704599042094 1.3836069699561069 10.710437634588002
O 7.383665104304211 1.5169949659561068 10.671554627388003
O 4.92117848735 -0.0108069169 10.73449359445
O 3.2058262722042095 -0.0102578038438932 8.274650761888003
O 5.801320009404209 1.5178635233561069 8.258232666688004
O 10.802686365004208 1.4174759473561067 8.218740513888003
