80   
   
In -0.0202483725 -0.0518560375 6.1423655675
Ga -0.0607451175 -0.1555681125 18.4270967025
Al 4.9646200975 2.8924599775 6.1824516825
Ga 4.9241233525000005 2.7887479025 18.4671828175
Al 3.3218768025000003 -0.0185701025 6.153452832499999
In 3.2813800575 -0.1222821775 18.4381839675
In 1.6224949225 2.8591740425 6.1713644175
Ga 1.5819981775 2.7554619675 18.4560955525
Ga 0.0 0.0 0.0
In -0.040496745 -0.103712075 12.284731135
Al 4.98486847 2.944316015 0.040086115
Al 4.944371725 2.8406039400000003 12.32481725
In 3.342125175 0.033285935 0.011087265
In 3.30162843 -0.07042614 12.295818400000002
In 1.642743295 2.91103008 0.02899885
Al 1.60224655 2.807318005 12.313729985
In -0.0290018266305 1.9034704304425 3.0868180317355
In -0.0694985716305 1.7997583554424998 15.3715491667355
In -1.7283837066305003 4.7812145754425 3.1047296167355
Al -1.7688804516305003 4.6775025004425 15.3894607517355
In 3.3131233483695 1.9367563654425 3.0979052967355
Ga 3.2726266033695 1.8330442904425 15.382636431735497
In 1.6137414683694995 4.8145005104425 3.1158168817355
In 1.5732447233694995 4.7107884354425 15.400548016735497
In 1.6312483766305004 0.9038475745575 9.2269119532645
In 1.5907516316305004 0.8001354995575 21.511643088264496
Al -0.0681335033695 3.7815917195575 9.244823538264502
In -0.1086302483695 3.6778796445575 21.529554673264496
Al 4.973373551630501 0.9371335095575 9.237999218264498
Al 4.9328768066305 0.8334214345574998 21.522730353264496
In 3.2739916716305006 3.8148776545574994 9.255910803264499
Ga 3.2334949266305006 3.7111655795575 21.540641938264496
O -0.035639243136 1.88647202135 5.100285464762
O -0.076135988136 1.78275994635 17.385016599761997
O -1.7350211231360002 4.764216166350001 5.118197049761999
O -1.7755178681360002 4.66050409135 17.402928184761997
O 3.306485931864 1.91975795635 5.111372729762
O 3.265989186864 1.81604588135 17.396103864761997
O 1.6071040518639998 4.79750210135 5.129284314762
O 1.5666073068639998 4.69379002635 17.414015449761997
O 1.6378857931360002 0.92084598365 7.213444520237998
O 1.5973890481360002 0.8171339086499999 19.498175655238
O -0.061496086864 3.79859012865 7.231356105237999
O -0.101992831864 3.69487805365 19.516087240238
O 4.980010968136001 0.9541319186499998 7.224531785238
O 4.939514223136001 0.8504198436499998 19.509262920238
O 3.2806290881360005 3.8318760636499993 7.242443370237998
O 3.2401323431360005 3.72816398865 19.527174505238
O 1.6246109601250005 0.8868491654649999 11.240379386291
O 1.5841142151250005 0.7831370904649999 23.525110521291
O -0.074770919875 3.764593310465 11.258290971291
O -0.115267664875 3.660881235465 23.543022106291
O 4.966736135125001 0.9201351004649998 11.251466651291
O 4.926239390125001 0.8164230254649998 23.536197786291
O 3.2673542551250003 3.797879245465 11.269378236291
O 3.2268575101250003 3.694167170465 23.554109371291002
O -0.022364410125 1.920468839535 1.073350598709
O -0.062861155125 1.816756764535 13.358081733709
O -1.7217462901250002 4.798212984535001 1.091262183709
O -1.7622430351250002 4.694500909535001 13.375993318709002
O 3.3197607648750003 1.953754774535 1.084437863709
O 3.2792640198750003 1.850042699535 13.369168998709
O 1.6203788848749998 4.831498919535 1.102349448709
O 1.5798821398749998 4.727786844535 13.387080583709
O -0.01012418625 -0.02592801875 3.07118278375
O -0.05062093125 -0.12964009375 15.35591391875
O 4.974744283750001 2.91838799625 3.11126889875
O 4.93424753875 2.81467592125 15.39600003375
O 3.33200098875 0.00735791625 3.08227004875
O 3.29150424375 -0.09635415875 15.367001183749997
O 1.6326191087500002 2.88510206125 3.10018163375
O 1.5921223637500002 2.78138998625 15.384912768749997
O -0.03037255875 -0.07778405625 9.21354835125
O -0.07086930375 -0.18149613125 21.49827948625
O 4.95449591125 2.86653195875 9.25363446625
O 4.91399916625 2.76281988375 21.53836560125
O 3.31175261625 -0.04449812125 9.22463561625
O 3.27125587125 -0.14821019625 21.50936675125
O 1.61237073625 2.83324602375 9.24254720125
O 1.57187399125 2.72953394875 21.52727833625
