80   
   
In 0.01447737 -0.060888735 6.30597411
In 0.04343211 -0.182666205 18.91792233
In 5.31358966 2.938330795 6.32402713
In 5.3425444 2.816553325 18.93597535
In 3.5293034 -0.09073202 6.2986553800000005
In 3.55825814 -0.21250949 18.9106036
In 1.79876363 2.9681740800000003 6.33134586
In 1.82771837 2.84639661 18.94329408
In 0.0 0.0 0.0
In 0.02895474 -0.12177747 12.61194822
In 5.29911229 2.99921953 0.01805302
In 5.32806703 2.87744206 12.63000124
In 3.51482603 -0.029843285 -0.00731873
In 3.54378077 -0.151620755 12.60462949
In 1.78428626 3.029062815 0.02537175
In 1.813241 2.907285345 12.63731997
Ga 0.025152390117 1.9986756718695005 3.172339196259
Ga 0.054107130117 1.8768982018695004 15.784287416259001
In -1.7053873798830002 5.057581771869501 3.205029676259
Ga -1.676432639883 4.935804301869501 15.816977896259
In 3.5399784201169995 1.9688323868695004 3.165020466259
In 3.568933160117 1.8470549168695003 15.776968686259002
Ga 1.8094386501169997 5.0277384868695005 3.197710946259
In 1.8383933901169995 4.905961016869501 15.809659166259001
In 1.788088609883 0.9086096731305 9.464980773741
In 1.817043349883 0.7868322031305001 22.076928993741
In 0.057548839883 3.9675157731305 9.497671253741
In 0.086503579883 3.8457383031305 22.109619473741
In 5.302914639883 0.8787663881305 9.457662043741
In 5.331869379883001 0.7569889181305001 22.069610263740998
In 3.5723748698830007 3.9376724881305 9.490352523741
In 3.6013296098830003 3.8158950181305 22.102300743740997
O 0.029898072003 1.9787163445365004 5.239437509517
O 0.058852812003 1.8569388745365003 17.851385729517
O -1.700641697997 5.037622444536501 5.272127989517
O -1.6716869579970002 4.915844974536501 17.884076209516998
O 3.544724102003 1.9488730595365005 5.232118779517
O 3.5736788420029995 1.8270955895365 17.844066999516997
O 1.814184332003 5.007779159536501 5.264809259517
O 1.8431390720029996 4.886001689536501 17.876757479517
O 1.783342927997 0.9285690004635 7.3978824604829985
O 1.812297667997 0.8067915304635 20.009830680483002
O 0.052803157997 3.9874751004635 7.430572940482999
O 0.081757897997 3.8656976304635 20.042521160483002
O 5.298168957997 0.8987257154635001 7.390563730482999
O 5.327123697997001 0.7769482454635 20.002511950483
O 3.5676291879970004 3.9576318154635 7.423254210483
O 3.5965839279970004 3.8358543454635 20.035202430483
O 1.792834291769 0.8886503457975 11.532079086999
O 1.821789031769 0.7668728757975001 24.144027306999
O 0.062294521769 3.9475564457975 11.564769566999
O 0.091249261769 3.8257789757975 24.176717786999003
O 5.307660321769 0.8588070607975 11.524760356999
O 5.336615061769001 0.7370295907975001 24.136708576999002
O 3.577120551769001 3.9177131607975 11.557450836999
O 3.6060752917690007 3.7959356907975 24.169399056999
O 0.020406708231 2.0186349992025003 1.105240883001
O 0.049361448231 1.8968575292025005 13.717189103001001
O -1.710133061769 5.0775410992025005 1.137931363001
O -1.6811783217690002 4.955763629202501 13.749879583001002
O 3.535232738231 1.9887917142025 1.097922153001
O 3.564187478231 1.8670142442025 13.709870373001
O 1.804692968231 5.0476978142025 1.130612633001
O 1.8336477082309997 4.925920344202501 13.742560853001
O 0.007238685 -0.0304443675 3.152987055
O 0.036193425 -0.1522218375 15.764935275
O 5.306350975 2.9687751625 3.171040075
O 5.335305715 2.8469976925 15.782988295
O 3.522064715 -0.0602876525 3.145668325
O 3.551019455 -0.1820651225 15.757616545
O 1.791524945 2.9986184475 3.178358805
O 1.820479685 2.8768409775 15.790307025
O 0.021716055 -0.0913331025 9.458961165
O 0.050670795 -0.2131105725 22.070909385
O 5.320828345 2.9078864275 9.477014185
O 5.349783085 2.7861089575 22.088962405
O 3.536542085 -0.1211763875 9.451642435
O 3.565496825 -0.2429538575 22.063590655
O 1.806002315 2.9377297125 9.484332915
O 1.834957055 2.8159522425 22.096281135
