80   
   
Ga 1.6529706871099998 7.458135542529998 6.51721909561
Al 6.75948625211 7.43599939753 6.49553186061
In 3.52671542205 1.29318872893 1.83062311105
Ga 8.633230987049998 1.2710525839299998 1.80893587605
Al 0.98107531205 3.07317585951 1.83792356775
Ga 6.08759087705 3.05103971451 1.81623633275
Ga 4.198610797109999 5.6781484119500005 6.50991863891
Ga 9.30512636211 5.65601226695 6.48823140391
Al 0.9388802886349998 5.758160106365 -0.015423598265
In 6.045395853635 5.736023961365 -0.037110833265
Al 4.225178346365 2.985920833635 4.666950908265
Ga 9.331693911365 2.963784688635 4.645263673265
Al 1.664981693865 1.385696298775 4.681021959365
Al 6.771497258865 1.363560153775 4.659334724365
Ga 3.538740581135 7.376768731225 9.352015240635
Al 8.645256146135 7.354632586224999 9.330328005635002
In 0.89864992878 0.2773575847499999 9.36795871263
Al 6.005165493779999 0.2552214397499999 9.34627147763
Ga 4.30499301894 8.485070677069999 4.64631546759
Al 9.411508583940002 8.462934532069998 4.62462823259
Al 1.73514228644 4.64304773197 4.66487686109
In 6.84165785144 4.62091158697 4.64318962609
In 3.46850066128 4.11938052985 9.34939731913
Al 8.57501622628 4.09724438485 9.32771008413
Al 3.535099112955 1.374157950785 7.365638684655002
Ga 8.641614677954998 1.352021805785 7.343951449655002
Ga 1.651726451405 7.380475456874999 2.670875302205
Ga 6.758242016404999 7.358339311874999 2.649188067205
Ga 4.197969941405 5.740600726935001 2.663294199105
Al 9.304485506404996 5.718464581935001 2.641606964105
Al 0.9888556229549998 3.014032680725 7.373219787755
Ga 6.095371187954999 2.991896535725 7.351532552755
O 4.293949860154999 5.856515879925 8.347975086354998
O 9.400465425155 5.834379734925 8.326287851354998
O 0.901284395885 2.9020149548150007 3.677418997185
O 6.007799960885 2.879878809815001 3.655731762185
O 3.448432955885 1.472308825835 3.669416924485
O 8.554948520884999 1.450172680835 3.647729689485
O 1.746801300155 7.286222008904998 8.355977159054998
O 6.853316865155 7.264085863904999 8.334289924054998
O 2.7062085024350004 0.078755341845 5.889426058835
O 7.812724067434998 0.056619196845 5.867738823835
O 2.468083351685 8.670068693375 1.182530802785
O 7.574598916684998 8.647932548375001 1.160843567785
O 5.003164311685 4.4381145515950005 1.1801416580850002
O 10.109679876684998 4.415978406595 1.158454423085
O 0.171127542435 4.310709483625 5.891815203535
O 5.277643107434999 4.288573338625 5.870127968535
O 0.112584237665 7.243952140795 1.120331477365
O 5.219099802664999 7.221815995795 1.098644242365
O 5.061072998214999 1.504577748985 5.801521226015
O 10.167588563215 1.482441603985 5.779833991015
O 2.513622748215 2.864227677645 5.809663621915
O 7.620138313214999 2.842091532645 5.787976386915
O 2.660034487665 5.884302212135 1.112189081465
O 7.766550052664998 5.862166067135 1.090501846465
O 5.02032742525 7.30232862488 5.9496770834
O 10.12684299025 7.28019247988 5.9279898484
O 0.15467837439 1.44682632396 1.2911469562400002
O 5.26119393939 1.42469017896 1.26945972124
O 2.71434706939 2.9244525082600004 1.2773214707400002
O 7.820862634389998 2.9023163632600006 1.25563423574
O 2.46065873025 5.824702440580001 5.9635025689
O 7.567174295249998 5.802566295580001 5.9418153339
O 1.884211743705 1.4966237303950003 8.113576604905
O 6.990727308704999 1.474487585395 8.091889369905001
O 3.308880675775 7.260914363484998 3.405215944575
O 8.415396240774998 7.238778218485 3.383528709575
O 0.7495890932749999 5.870858429585001 3.418866026075
O 5.856104658274999 5.848722284585 3.397178791075
O 4.443503326205 2.886679664295 8.099926523404998
O 9.550018891205 2.864543519295 8.078239288404998
O 4.30478199959 0.00679688882 8.425210832140001
O 9.41129756459 -0.01533925618 8.403523597140001
O 0.89100754741 8.75199132318 3.73152438986
O 5.99752311241 8.729855178179998 3.70983715486
O 3.4254851274100004 4.379924780760001 3.72941589156
O 8.532000692409998 4.35778863576 3.707728656560001
O 1.77030441959 4.37886343124 8.427319330439998
O 6.87681998459 4.35672728624 8.405632095439998
