80   
   
Al -0.080531075 -0.048772745 5.8795732825
Al -0.241593225 -0.146318235 17.6387198475
Al 4.37065988 2.883956715 5.9638133925
In 4.20959773 2.786411225 17.722959957499995
Al 2.991881295 0.13259241 5.9228926125
Al 2.830819145 0.03504692 17.6820391775
Al 1.29824751 2.70259156 5.9204940625
Al 1.13718536 2.60504607 17.6796406275
Al 0.0 0.0 0.0
Al -0.16106215 -0.09754549 11.759146565
Al 4.451190955 2.93272946 0.08424011
Al 4.290128804999999 2.83518397 11.843386675
Al 3.07241237 0.181365155 0.04331933
Al 2.91135022 0.083819665 11.802465895
Al 1.3787785849999998 2.751364305 0.04092078
Ga 1.2177164349999998 2.653818815 11.800067345
Al -0.1452067756600001 1.7492240670515 2.952626100509
Al -0.3062689256600001 1.6516785770515 14.711772665508999
Al -1.8388405606600005 4.3192232170515 2.950227550509
Al -1.9999027106600005 4.2216777270515005 14.709374115508998
Al 2.92720559434 1.9305892220515 2.995945430509
Al 2.76614344434 1.8330437320515 14.755091995508998
Al 1.2335718093399997 4.5005883720515 2.993546880509
Al 1.0725096593399996 4.4030428820515 14.752693445508998
In 1.36292321066 0.9045947479485 8.847441244490998
Al 1.20186106066 0.8070492579484999 20.606587809491003
Ga -0.3307105743400003 3.4745938979485 8.845042694491
Al -0.4917727243400003 3.3770484079485 20.604189259491
Al 4.43533558066 1.0859599029485 8.890760574491
Al 4.27427343066 0.9884144129485 20.649907139491003
Al 2.74170179566 3.6559590529485 8.888362024491
Al 2.58063964566 3.5584135629485 20.647508589491
O -0.1716048620450001 1.7332363612405 4.8799502225125
O -0.3326670120450001 1.6356908712405 16.6390967875125
O -1.8652386470450004 4.3032355112405005 4.8775516725125
O -2.026300797045 4.205690021240501 16.636698237512498
O 2.900807507955 1.9146015162405 4.9232695525125
O 2.739745357955 1.8170560262405 16.6824161175125
O 1.2071737229549997 4.4846006662405005 4.9208710025125
O 1.0461115729549997 4.387055176240501 16.6800175675125
O 1.389321297045 0.9205824537595 6.9201171224875
O 1.228259147045 0.8230369637595 18.679263687487506
O -0.3043124879550003 3.4905816037595 6.9177185724875
O -0.4653746379550003 3.3930361137595 18.676865137487493
O 4.461733667045 1.1019476087595 6.9634364524875
O 4.300671517045 1.0044021187595 18.7225830174875
O 2.768099882045 3.6719467587595 6.961037902487499
O 2.607037732045 3.5744012687595 18.720184467487496
O 1.336525124275 0.8886070421375 10.774765366494501
O 1.175462974275 0.7910615521375 22.5339119314945
O -0.3571086607250003 3.4586061921375 10.772366816494499
O -0.5181708107250003 3.3610607021375 22.531513381494495
O 4.408937494275 1.0699721971375 10.818084696494498
O 4.247875344275 0.9724267071375 22.5772312614945
O 2.715303709275 3.6399713471375 10.8156861464945
O 2.554241559275 3.5424258571375 22.574832711494498
O -0.1188086892750001 1.7652117728625 1.0253019785055
O -0.2798708392750001 1.6676662828625 12.784448543505501
O -1.8124424742750005 4.335210922862501 1.0229034285055
O -1.9735046242750005 4.237665432862501 12.7820499935055
O 2.953603680725 1.9465769278625 1.0686213085055
O 2.792541530725 1.8490314378625 12.8277678735055
O 1.2599698957249996 4.516576077862501 1.0662227585055
O 1.0989077457249998 4.419030587862501 12.8253693235055
O -0.0402655375 -0.0243863725 2.93978664125
O -0.2013276875 -0.1219318625 14.69893320625
O 4.4109254175 2.9083430875 3.02402675125
O 4.2498632675 2.8107975975 14.78317331625
O 3.0321468325 0.1569787825 2.98310597125
O 2.8710846825 0.0594332925 14.74225253625
O 1.3385130474999998 2.7269779325 2.98070742125
O 1.1774508974999998 2.6294324425 14.73985398625
O -0.1207966125 -0.0731591175 8.819359923749998
O -0.2818587625 -0.1707046075 20.57850648875
O 4.330394342499999 2.8595703425 8.90360003375
O 4.1693321925 2.7620248525 20.66274659875
O 2.9516157575 0.1082060375 8.86267925375
O 2.7905536075 0.0106605475 20.62182581875
O 1.2579819725 2.6782051875 8.86028070375
O 1.0969198225 2.5806596975 20.61942726875
