80   
   
Al 10.759823757465 1.71848e-06 1.219759313315
Al 10.759816427465 3.14044353348 1.2197728583149998
Ga 22.955900892465 4.78848e-06 1.207812698315
In 22.955893562464997 3.14044660348 1.2078262433149998
Ga -0.1559922724650001 -3.87848e-06 4.771312541685
Al -0.1559996024650002 3.14043793652 4.771326086685
Al 12.040084862535 -8.0848e-07 4.759365926685
Al 12.040077532535 3.14044100652 4.759379471685
Ga 4.661781524965 1.57022109098 1.2257393933149998
In 4.661774194965 4.7106629059800005 1.225752938315
Al 16.857858659964997 1.57022416098 1.213792778315
Ga 16.857851329964994 4.7106659759800005 1.2138063233149998
Ga 5.942042630034999 1.57021856402 4.765346006685
Al 5.942035300034999 4.71066037902 4.765359551685
Al 18.138119765035 1.57022163402 4.753399391685
Ga 18.138112435035 4.71066344902 4.753412936685
In 9.164616689634999 1.57021990159 4.108030339705
In 9.164609359634996 4.71066171659 4.108043884705
In 21.360693824635003 1.57022297159 4.096083724705
In 21.360686494635 4.71066478659 4.096097269705
In 1.439207465365 1.57021975341 1.883055060295
In 1.439200135365 4.710661568410001 1.883068605295
Al 13.635284600365 1.57022282341 1.871108445295
In 13.635277270365 4.710664638410001 1.871121990295
In 3.066581787135 -2.54091e-06 4.113996874705
In 3.066574457135 3.14043927409 4.114010419705
In 15.262658922135001 5.2909e-07 4.102050259705
Al 15.262651592135002 3.14044234409 4.102063804705
Al 7.537249697865 3.8091e-07 1.877074980295
In 7.537242367864998 3.14044219591 1.877088525295
Al 19.733326832865 3.45091e-06 1.865128365295
Al 19.733319502864997 3.14044526591 1.865141910295
O 9.390344441595 2.5338e-07 2.613439220785
O 9.390337111594999 3.14044206838 2.613452765785
O 21.586421576595 3.32338e-06 2.601492605785
O 21.586414246595 3.14044513838 2.601506150785
O 1.2134870434049996 -2.41338e-06 3.377632634215
O 1.2134797134049995 3.14043940162 3.377646179215
O 13.409564178404999 6.5662e-07 3.3656860192149995
O 13.409556848404998 3.14044247162 3.3656995642149994
O 3.2923022090950003 1.57021962588 2.619419300785
O 3.2922948790950004 4.71066144088 2.619432845785
O 15.488379344094994 1.57022269588 2.607472685785
O 15.488372014095 4.71066451088 2.607486230785
O 7.311521945904999 1.57022002912 3.371666099215
O 7.311514615904998 4.7106618441200006 3.3716796442149994
O 19.507599080905 1.57022309912 3.3597194842149998
O 19.507591750905 4.7106649141200005 3.359733029215
O 8.766625779224999 -2.09125e-06 5.332711014775
O 8.766618449224998 3.14043972375 5.332724559775
O 20.962702914224998 9.7875e-07 5.320764399775
O 20.962695584225 3.14044279375 5.320777944775
O 1.837205705775 -6.875e-08 0.658360840225
O 1.8371983757750003 3.14044174625 0.658374385225
O 14.033282840775 3.00125e-06 0.646414225225
O 14.033275510775 3.14044481625 0.646427770225
O 2.6685835467250003 1.57021728125 5.338691094775
O 2.6685762167250004 4.710659096250001 5.338704639775
O 14.864660681724999 1.57022035125 5.326744479775
O 14.864653351724998 4.710662166250001 5.326758024775
O 7.935240608275001 1.5702223737499998 0.652394305225
O 7.935233278275 4.710664188750001 0.652407850225
O 20.131317743275 1.5702254437499998 0.6404476902249999
O 20.131310413275003 4.710667258750001 0.640461235225
O -1.13425787441 1.57021703389 4.46020170925
O -1.13426520441 4.7106588488900005 4.46021525425
O 11.06181926059 1.57022010389 4.44825509425
O 11.06181193059 4.7106619188900005 4.44826863925
O 11.73808202941 1.57022262111 1.53088369075
O 11.73807469941 4.71066443611 1.53089723575
O 23.93415916441 1.57022569111 1.51893707575
O 23.93415183441 4.71066750611 1.51895062075
O 4.96378435809 -2.33861e-06 4.45422162925
O 4.96377702809 3.14043947639 4.45423517425
O 17.15986149309 7.3139e-07 4.44227501425
O 17.15985416309 3.14044254639 4.44228855925
O 5.64004712691 1.7861e-07 1.53685022575
O 5.64003979691 3.14044199361 1.53686377075
O 17.83612426191 3.24861e-06 1.52490361075
O 17.836116931910002 3.14044506361 1.52491715575
