80   
   
Ga 10.925208132064999 6.82206e-06 1.23000699567
Ga 10.925203402064998 3.23319792706 1.22999480067
Ga 23.315863267064998 1.626206e-05 1.18341937567
Ga 23.315858537064997 3.23320736706 1.18340718067
In -0.1828329270650001 -5.96206e-06 4.930015834330001
Ga -0.182837657065 3.23318514294 4.930003639330001
Ga 12.207822207935 3.47794e-06 4.88342821433
Ga 12.207817477934999 3.23319458294 4.88341601933
Ga 4.729878199565 1.6165976545599998 1.25329470817
Ga 4.729873469565 4.84978875956 1.25328251317
Ga 17.120533334565 1.61660709456 1.20670708817
Ga 17.120528604565 4.84979819956 1.20669489317
Ga 6.012492275434998 1.61659431044 4.9067159268300005
Ga 6.0124875454349995 4.84978541544 4.90670373183
Ga 18.403147410435 1.61660375044 4.86012830683
Ga 18.403142680435003 4.84979485544 4.860116111830001
In 9.289818571555 1.61659760566 4.21854848278
In 9.289813841554999 4.84978871066 4.21853628778
In 21.680473706555002 1.61660704566 4.171960862780001
In 21.680468976555 4.84979815066 4.171948667780001
In 1.4525519034449998 1.61659435934 1.94146215222
In 1.452547173445 4.84978546434 1.94144995722
In 13.843207038445 1.61660379934 1.89487453222
In 13.843202308445 4.84979490434 1.89486233722
In 3.094493369055 -2.66684e-06 4.24184839028
In 3.094488639055 3.23318843816 4.24183619528
In 15.485148504055001 6.77316e-06 4.195260770280001
In 15.485143774054999 3.23319787816 4.195248575280001
In 7.647881835945 3.52684e-06 1.91817443972
In 7.647877105944999 3.23319463184 1.91816224472
In 20.038536970945 1.296684e-05 1.87158681972
In 20.038532240945 3.23320407184 1.87157462472
O 9.526773467235 4.05742e-06 2.67376080491
O 9.526768737235 3.23319516242 2.67374860991
O 21.917428602235002 1.349742e-05 2.62717318491
O 21.917423872235002 3.2332046024200003 2.62716098991
O 1.2156017377649997 -3.19742e-06 3.48626202509
O 1.2155970077649996 3.23318790758 3.48624983009
O 13.606256872765 6.24258e-06 3.43967440509
O 13.606252142765 3.23319734758 3.43966221009
O 3.331443534735 1.61659488992 2.6970485174100003
O 3.3314388047350003 4.84978599492 2.69703632241
O 15.722098669735002 1.61660432992 2.6504608974100003
O 15.722093939735002 4.84979543492 2.6504487024100003
O 7.410926940265 1.61659707508 3.46296211759
O 7.4109222102649985 4.84978818008 3.46294992259
O 19.801582075265 1.61660651508 3.41637449759
O 19.801577345265 4.84979762008 3.41636230259
O 8.879227900024999 2.462e-07 5.4849826378
O 8.879223170024998 3.2331913512 5.484970442800001
O 21.269883035025 9.6862e-06 5.4383950178000005
O 21.269878305024996 3.2332007912000003 5.4383828228
O 1.8631473049750005 6.138e-07 0.6750401922
O 1.863142574975 3.2331917188 0.6750279972000001
O 14.253802439975 1.00538e-05 0.6284525722000001
O 14.253797709975 3.2332011588 0.6284403772
O 2.683897967525 1.6165910787 5.5082703503
O 2.6838932375250004 4.8497821837 5.5082581553
O 15.074553102524998 1.6166005187 5.461682730300001
O 15.074548372524998 4.8497916237 5.461670535300001
O 8.058472507475 1.6166008863 0.6517402847
O 8.058467777475 4.8497919913 0.6517280897000001
O 20.449127642475002 1.6166103263 0.6051526647000001
O 20.449122912475 4.8498014313 0.6051404697
O -1.17511173245 1.61658921532 4.61131911637
O -1.17511646245 4.84978032032 4.611306921370001
O 11.21554340255 1.6165986553199998 4.56473149637
O 11.215538672549998 4.84978976032 4.56471930137
O 11.91748220745 1.61660274968 1.54869151863
O 11.91747747745 4.84979385468 1.54867932363
O 24.308137342449996 1.61661218968 1.5021038986300002
O 24.308132612449995 4.84980329468 1.50209170363
O 5.02021820005 -1.61718e-06 4.5880314038700005
O 5.02021347005 3.2331894878200003 4.5880192088700005
O 17.410873335049995 7.82282e-06 4.54144378387
O 17.41086860505 3.23319892782 4.54143158887
O 5.72215700495 2.47718e-06 1.57199142613
O 5.72215227495 3.23319358218 1.57197923113
O 18.11281213995 1.191718e-05 1.5254038061300002
O 18.11280740995 3.23320302218 1.52539161113
