80   
   
In 1.6741672747099998 7.575065270709999 6.60485493271
In 6.86735122471 7.557997655709999 6.58193727271
In 3.58548895933 1.3172763531099998 1.85512304149
In 8.77867290933 1.3002087381099998 1.83220538149
In 0.99475473991 3.12121679997 1.86200455755
Ga 6.187938689909999 3.10414918497 1.83908689755
In 4.26490149413 5.77112482385 6.59797341665
In 9.45808544413 5.75405720885 6.57505575665
Ga 0.94866113087 5.845348702355 -0.0190125214
Al 6.14184508087 5.828281087355 -0.0419301814
Ga 4.29447993913 3.0376243776450003 4.7304570414
Ga 9.48766388913 3.020556762645 4.7075393814
Ga 1.69255218677 1.410738276025 4.74608530588
Al 6.88573613677 1.393670661025 4.72316764588
Al 3.59250554323 7.496012833974999 9.47940351412
Al 8.78568949323 7.4789452189749985 9.45648585412
Al 0.91519961064 0.28753144305 9.50000028972
Ga 6.108383560639999 0.27046382805 9.477082629720002
Al 4.369774286039999 8.619172110889998 4.70646044168
Al 9.56295823604 8.602104495889998 4.68354278168
Al 1.7604228434399998 4.7169191791900005 4.72788965848
Al 6.9536067934400005 4.699851564190001 4.7049719984800005
In 3.52455105324 4.18978437475 9.47857107292
Al 8.717735003239998 4.172716759749999 9.45565341292
Ga 3.5948722272 1.402461807095 7.46829665171
In 8.788056177200001 1.385394192095 7.44537899171
Al 1.6723290056400002 7.494159862124999 2.70420929649
Al 6.86551295564 7.477092247125 2.68129163649
Ga 4.2635272057 5.832429842145 2.69696522091
Al 9.4567111557 5.815362227145001 2.67404756091
Al 1.00367402714 3.064191827075 7.47554072729
In 6.19685797714 3.047124212075 7.45262306729
O 4.36198126244 5.953258201875 8.461883299830001
O 9.555165212439999 5.936190586875 8.43896563983
O 0.91410630232 2.948404409705 3.72760003997
O 6.107290252320001 2.931336794705 3.70468237997
O 3.50600047334 1.4999900300450002 3.71981212511
O 8.69918442334 1.4829224150450002 3.69689446511
O 1.77008709142 7.401672581535 8.46967121469
O 6.96327104142 7.384604966535 8.44675355469
O 2.7530481420000004 0.085989248115 5.97209815347
O 7.946232092 0.068921633115 5.94918049347
O 2.50090742628 8.803118563625 1.19396979593
O 7.69409137628 8.786050948625 1.17105213593
O 5.0835219845 4.510495646365 1.19343307147
O 10.2767059345 4.493428031365 1.17051541147
O 0.17043358378 4.378612165375 5.97263487793
O 5.36361753378 4.361544550375 5.94971721793
O 0.10695167444 7.353122566764998 1.13211580021
O 5.30013562444 7.336054951764998 1.10919814021
O 5.14633322728 1.5356047964949997 5.88172744039
O 10.33951717728 1.5185371814949995 5.85880978039
O 2.55420706594 2.912913962715 5.88969663501
O 7.74739101594 2.895846347715 5.86677897501
O 2.69907783578 5.975813400545 1.12414660559
O 7.892261785779999 5.958745785545 1.10122894559
O 5.09873161813 7.420187314159999 6.02876322293
O 10.29191556813 7.403119699159999 6.00584556293
O 0.15597845003 1.46934850212 1.30855752387
O 5.34916240003 1.45228088712 1.2856398638700002
O 2.75750021933 2.97180048022 1.29324649897
O 7.950684169329999 2.95473286522 1.27032883897
O 2.49720984883 5.917735336060001 6.04407424783
O 7.690393798829998 5.9006677210600005 6.02115658783
O 1.91596902781 1.525416150565 8.227036893639998
O 7.109152977809999 1.508348535565 8.20411923364
O 3.35785503731 7.374962447395 3.44868805396
O 8.55103898731 7.357894832395 3.42577039396
O 0.7566232559100001 5.961391986095 3.46377247916
O 5.94980720591 5.944324371095 3.44085481916
O 4.517200809209999 2.9389866118650003 8.21195246844
O 9.71038475921 2.921918996865 8.18903480844
O 4.379255774990001 0.01601985254 8.54345804627
O 9.57243972499 -0.00104776246 8.520540386269998
O 0.8974186230100001 8.885975651459999 3.77922191373
O 6.09060257301 8.86890803646 3.75630425373
O 3.47956920059 4.45114230732 3.77904774879
O 8.672753150589998 4.43407469232 3.75613008879
O 1.79710519741 4.45085319668 8.543632211210001
O 6.99028914741 4.4337855816800005 8.52071455121
