80   
   
Al 1.58261239115 7.21341604503 6.3387782775299994
Al 6.51758550115 7.19557971003 6.3253736825299995
Al 3.40460182975 1.25215969451 1.78416525333
Al 8.339574939749998 1.23432335951 1.77076065833
Al 0.94326211051 2.9735871555699998 1.78951248231
Ga 5.87823522051 2.95575082057 1.77610788731
Al 4.04395211039 5.49198858397 6.33343104855
Al 8.97892522039 5.47415224897 6.320026453549999
Al 0.90338304773 5.575179153275 -0.006813457585
Al 5.83835615773 5.557342818275001 -0.020218052585
Al 4.074218617269999 2.887909496725 4.540982697584999
Al 9.00919172727 2.870073161725 4.527578102584999
Al 1.60113296435 1.336918208705 4.548919314925
Al 6.536106074349999 1.319081873705 4.535514719925
Al 3.40086605065 7.132482851295 9.093814115074998
Al 8.33583916065 7.114646516294999 9.080409520075
Al 0.85436133153 0.25764265671 9.09700240605
Al 5.78933444153 0.23980632171 9.08359781105
Al 4.147588888769999 8.21174577847 4.52751389557
Al 9.08256199877 8.19390944347 4.51410930057
In 1.6667131865699998 4.49044568277 4.53716782747
Al 6.60168629657 4.47260934777 4.52376323247
Al 3.3352370337299995 3.97894275241 9.08734847415
Al 8.270210143729999 3.96110641741 9.07394387915
Al 3.4044347859600004 1.323759675655 7.158204673135
Al 8.339407895959999 1.305923340655 7.144800078135
Ga 1.58717095794 7.142952297685 2.604280411925
Al 6.522144067939999 7.125115962685 2.590875816925
Al 4.04899755526 5.557169137105 2.5988258507849995
Al 8.983970665259998 5.539332802104999 2.585421255785
Al 0.94260818864 2.909542836235 7.163659234275
Ga 5.87758129864 2.891706501235 7.150254639275
O 4.13323713146 5.662477974235 8.118347586475
O 9.068210241459997 5.644641639235001 8.104942991474998
O 0.86354085064 2.805572230025 3.575153106865
O 5.79851396064 2.7877358950250004 3.561748511865
O 3.32609776508 1.423255520165 3.569537547485
O 8.261070875079998 1.405419185165 3.556132952485
O 1.67068021702 7.044794684095 8.123963145854999
O 6.60565332702 7.0269583490950005 8.110558550855
O 2.60648068482 0.070906349035 5.722189088794999
O 7.54145379482 0.053070014035 5.708784493794999
O 2.3774154964799994 8.393810902744999 1.161989712225
O 7.31238860648 8.375974567744999 1.148585117225
O 4.83023484932 4.298608183285 1.158520796045
O 9.76520795932 4.280771848285 1.145116201045
O 0.15366133198 4.166109068495 5.725658004974999
O 5.088634441979999 4.148272733495 5.712253409974999
O 0.10214218676 7.011611037645 1.0963874670449998
O 5.037115296759999 6.993774702644999 1.082982872045
O 4.881363636939999 1.4530052155749995 5.642054306934999
O 9.81633674694 1.4351688805749998 5.628649711934999
O 2.41856328346 2.767499775195 5.647723532394999
O 7.35353639346 2.749663440195 5.634318937394999
O 2.56494254024 5.697116478025 1.090718241585
O 7.499915650239998 5.679280143025 1.077313646585
O 4.83776832202 7.06562733126 5.79263328978
O 9.772741432019998 7.04779099626 5.77922869478
O 0.14656701158 1.3992035439 1.25549966666
O 5.08154012158 1.3813672089 1.24209507166
O 2.61922664618 2.831506069 1.24765696496
O 7.55419975618 2.813669734 1.23425236996
O 2.36510868742 5.633324806160001 5.80047599148
O 7.300081797419998 5.615488471160001 5.787071396479999
O 1.80782647741 1.440248322725 7.882037125544999
O 6.7427995874099995 1.422411987725 7.868632530545
O 3.18763404779 7.027461011395 3.3196011015349995
O 8.122607157789998 7.009624676395 3.306196506535
O 0.71527871199 5.679936174095 3.327376720635
O 5.65025182199 5.662099839095 3.3139721256349994
O 4.28018181321 2.787773160025 7.874261506444999
O 9.21515492321 2.7699368250250003 7.860856911444999
O 4.147625564839999 -0.00075223828 8.18649482132
O 9.08259867484 -0.01858857328 8.173090226319998
O 0.84949398016 8.468890816279998 3.63452577068
O 5.78446709016 8.451054481279998 3.62112117568
O 3.30182645492 4.23804379634 3.63116418666
O 8.236799564919998 4.22020746134 3.61775959166
O 1.69529309008 4.23009478166 8.189856405339999
O 6.63026620008 4.21225844666 8.176451810339998
