40   
   
Al 8.56694195369188 -0.0442988881755348 13.694409543192222
Al 5.09073844 -0.00427276 0.009640015
Ga 9.34853020255812 1.4714568981755347 2.4007807543077786
Al 4.257791762558121 1.4757296581755348 2.3911407393077786
Ga 5.12297327875 -0.018820525 5.3620350625
In 1.7219843888081214 -0.0127391818244652 4.166187311807779
Ga 0.042979785 -0.01939702 7.13652673
Ga 8.51321722244188 -0.0200526131755348 4.7737511306922205
Al 2.589532105 1.464222565 7.14561184
Al 7.680270545 1.459949805 7.155251855
Ga 8.54545206119188 -0.0346003781755348 10.126146178192222
Ga 5.14446317125 -0.028519035 8.9302984275
Ga 3.4654585674418783 -0.0351768731755348 11.90063784569222
Ga 1.7542192275581214 -0.0272869468244652 9.518582359307777
In 6.012010887441878 1.4484427118244652 11.90972295569222
Ga 11.10274932744188 1.4441699518244653 11.919362970692221
O 3.46900870265 -0.0062029702 1.2197647543
O 1.7752793222081211 -0.0367914866244652 13.015480457007776
O 5.913698929850001 1.4180718313999998 1.2284864599
O 11.004532017849998 1.5326595486 1.2384676831
O 8.492157127791879 -0.0105480733755348 1.2768530329922216
O 6.79842774735 -0.0411365898 13.0725687357
O 9.44684216015 1.5018277786000005 13.0820172501
O 4.356009072149999 1.3872400614 13.0720360269
O 6.8914874850918775 -0.0219828233755348 5.983875869992222
O 5.11179853465 -0.0137772998 3.5065381127
O 9.336177712291878 1.4022919782244652 5.992597575592222
O 4.245533920291878 1.5254252154244654 5.983298768792221
O 1.7331591329081215 -0.0177824070244652 6.021684261607779
O 10.13494695979188 -0.0181224029755348 3.563626391392221
O 12.78336137259188 1.5248419654244652 3.5730749057922218
O 7.692528284591878 1.410254248224465 3.5630936825922217
O 0.1324894902081215 -0.0292171570244652 10.728707098607778
O 8.534277317091878 -0.0295571529755348 8.270649228392221
O 2.577179717408121 1.3950576445755347 10.737428804207775
O 7.668012805408122 1.509645361775535 10.747410027407776
O 5.15563791535 -0.0335622602 10.7857953773
O 3.3759489649081216 -0.0253567366244652 8.308457620007779
O 6.024363377708122 1.5176076317755347 8.31790613440778
O 11.11500716970812 1.394474394575535 8.327204941207778
