80   
   
Al -0.0798559725 -0.042139075 5.87128018
Ga -0.2395679175 -0.126417225 17.61384054
Al 4.371044722500001 2.846401495 5.951899895
Al 4.211332777500001 2.762123345 17.694460255
Al 2.9796490175000003 0.11719389 5.91409039
Al 2.8199370725 0.03291574 17.65665075
Al 1.3115397325 2.68706853 5.9090896850000005
Al 1.1518277875 2.60279038 17.651650045
Ga 0.0 0.0 0.0
Al -0.159711945 -0.08427815 11.74256036
Al 4.4509006950000005 2.88854057 0.080619715
Al 4.291188750000001 2.80426242 11.823180075
Al 3.05950499 0.159332965 0.04281021
Al 2.899793045 0.075054815 11.78537057
Al 1.391395705 2.729207605 0.037809505
Al 1.23168376 2.644929455 11.780369865
Al -0.1321566224640001 1.7451145747585 2.94657526304
Al -0.2918685674640001 1.6608364247585 14.68913562304
Al -1.8002659074640004 4.3149892147585005 2.94157455804
Al -1.9599778524640004 4.2307110647585 14.68413491804
Al 2.927348367536 1.9044475397585 2.98938547304
Ga 2.767636422536 1.8201693897585 14.73194583304
Ga 1.2592390825359998 4.4743221797585 2.98438476804
Al 1.0995271375359998 4.3900440297585 14.72694512804
Ga 1.3638403824639995 0.8998148802414999 8.833794601960001
Al 1.2041284374639998 0.8155367302414999 20.57635496196
Al -0.3042689025360003 3.4696895202415 8.82879389696
Al -0.4639808475360003 3.3854113702415 20.57135425696
Al 4.423345372464 1.0591478452415 8.87660481196
Ga 4.263633427464001 0.9748696952415 20.61916517196
Al 2.755236087464001 3.6290224852415 8.871604106959998
Al 2.5955241424640008 3.5447443352415 20.61416446696
O -0.1583334102495001 1.7313013859735 4.871180906044001
O -0.3180453552495001 1.6470232359735 16.613741266044
O -1.8264426952495003 4.301176025973501 4.866180201044
O -1.9861546402495005 4.2168978759735 16.608740561044
O 2.9011715797505 1.8906343509735 4.913991116044
O 2.7414596347505 1.8063562009735 16.656551476044
O 1.2330622947504997 4.4605089909735005 4.908990411044
O 1.0733503497504997 4.3762308409735 16.651550771044
O 1.3900171702495 0.9136280690265 6.909188958956
O 1.2303052252494997 0.8293499190264999 18.651749318956
O -0.2780921147505003 3.4835027090265 6.904188253956
O -0.4378040597505004 3.3992245590265 18.646748613956003
O 4.449522160249501 1.0729610340265 6.951999168956
O 4.289810215249501 0.9886828840265 18.694559528956
O 2.781412875249501 3.6428356740265 6.946998463956
O 2.6217009302495007 3.5585575240265 18.689558823956
O 1.3376635946784998 0.8860016914564999 10.758400244964
O 1.1779516496785 0.8017235414564999 22.500960604964
O -0.3304456903215003 3.4558763314565 10.753399539964
O -0.4901576353215003 3.3715981814565 22.495959899964
O 4.397168584678501 1.0453346564565 10.801210454964
O 4.2374566396785 0.9610565064565 22.543770814964
O 2.7290592996785006 3.6152092964565 10.796209749964
O 2.569347354678501 3.5309311464565 22.538770109964
O -0.1059798346785001 1.7589277635435 1.021969620036
O -0.2656917796785001 1.6746496135435 12.764529980036002
O -1.7740891196785005 4.3288024035435 1.016968915036
O -1.9338010646785004 4.2445242535435 12.759529275036
O 2.9535251553215 1.9182607285435 1.064779830036
O 2.7938132103215 1.8339825785435 12.807340190036
O 1.2854158703214995 4.4881353685435 1.059779125036
O 1.1257039253214998 4.4038572185435 12.802339485036
O -0.03992798625 -0.0210695375 2.93564009
O -0.19963993125 -0.1053476875 14.67820045
O 4.41097270875 2.8674710325 3.016259805
O 4.25126076375 2.7831928825 14.758820165
O 3.0195770037500003 0.1382634275 2.9784503
O 2.85986505875 0.0539852775 14.72101066
O 1.3514677187500002 2.7081380675 2.973449595
O 1.1917557737500002 2.6238599175 14.716009955
O -0.11978395875 -0.0632086125 8.80692027
O -0.27949590375 -0.1474867625 20.54948063
O 4.33111673625 2.8253319575 8.887539985
O 4.1714047912500005 2.7410538075 20.630100345
O 2.9397210312500004 0.0961243525 8.84973048
O 2.78000908625 0.0118462025 20.59229084
O 1.27161174625 2.6659989925 8.844729775000001
O 1.11189980125 2.5817208425 20.587290135
