80   
   
Ga 1.79539737439 8.10041613845 6.993621752219999
Ga 7.36812789439 8.091213188450002 6.95946842222
Ga 3.84865903441 1.41611569247 1.9603807243
Ga 9.42138955441 1.40691274247 1.9262273943
In 1.0653985649100002 3.33610376925 1.96821001514
In 6.63812908491 3.32690081925 1.93405668514
Ga 4.57865784389 6.180428061670001 6.985792461379999
Ga 10.15138836389 6.171225111670001 6.95163913138
In 1.00763238758 6.237582295570001 -0.03623608071
In 6.5803629075800005 6.2283793455700005 -0.07038941071
In 4.611763482420001 3.2597242344300006 5.00883996071
In 10.18449400242 3.2505212844300004 4.97468663071
In 1.82257009642 1.51961712167 5.03433997643
In 7.39530061642 1.51041417167 5.00018664643
In 3.85941597358 8.02648458833 10.04333648357
In 9.43214649358 8.017281638330001 10.00918315357
In 0.99920744466 0.33166364592 10.08785637558
In 6.57193796466 0.32246069592 10.05370304558
In 4.68265344494 9.21434047372 4.96960993926
In 10.25538396494 9.20513752372 4.93545660926
In 1.88952527494 5.04681271712 5.00682939946
In 7.46225579494 5.03760976712 4.97267606946
In 3.7923356146600007 4.499191402520001 10.05063691538
In 9.36506613466 4.4899884525200005 10.01648358538
In 3.86899202285 1.52078935264 7.92210977385
In 9.44172254285 1.51158640264 7.88795644385
In 1.7863306219500004 8.00452561068 2.85080576707
In 7.35906114195 7.99532266068 2.81665243707
In 4.56983701545 6.23625132414 2.84224401095
In 10.14256753545 6.227048374140001 2.80809068095
In 1.08548562935 3.28906363918 7.93067152997
In 6.658216149350001 3.2798606891800004 7.89651819997
O 4.68596934693 6.379477704600001 8.96489049885
O 10.25869986693 6.370274754600001 8.930737168849998
O 0.98262242027 3.15618183688 3.95030042903
O 6.555352940270001 3.1469788868800004 3.91614709903
O 3.76649769977 1.6154782357000002 3.94063997499
O 9.33922821977 1.6062752857000002 3.90648664499
O 1.90209406743 7.92018130578 8.97455095289
O 7.47482458743 7.91097835578 8.94039762289
O 2.965191091050001 0.11119962648 6.33774814285
O 8.53792161105 0.10199667648 6.30359481285
O 2.67035305055 9.39869605996 1.24196446279
O 8.24308357055 9.38949310996 1.20781113279
O 5.449309850050001 4.823716653980001 1.24695331435
O 11.02204037005 4.81451370398 1.21279998435
O 0.18623429155 4.68617903246 6.33275929129
O 5.75896481155 4.67697608246 6.29860596129
O 0.10387556875 7.84747270556 1.18434218307
O 5.67660608875 7.83826975556 1.15018885307
O 5.53066712965 1.661642258 6.23368926129
O 11.10339764965 1.652439308 6.19953593129
O 2.74666888815 3.12648896406 6.24371594797
O 8.319399408150002 3.11728601406 6.20956261797
O 2.8878738102500003 6.382625999500001 1.17431549639
O 8.46060433025 6.3734230495 1.14016216639
O 5.46946077179 7.93974948559 6.37561373748
O 11.04219129179 7.930546535589999 6.34146040748
O 0.16720999341 1.57102451409 1.3859901746
O 5.7399405134100006 1.5618215640900002 1.3518368446000002
O 2.9561881959100003 3.1783820603900006 1.361131066
O 8.52891871591 3.1691791103900004 1.326977736
O 2.68048256929 6.33239193929 6.40047284608
O 8.25321308929 6.32318898929 6.36631951608
O 2.0685717734199995 1.65089338223 8.73088105855
O 7.64130229342 1.64169043223 8.69672772855
O 3.59664012298 7.882131219529998 3.63863595001
O 9.16937064298 7.87292826953 3.60448262001
O 0.8078156229800001 6.369594792130001 3.66303726781
O 6.380546142980001 6.360391842130001 3.62888393781
O 4.85739627342 3.16342980963 8.70647974075
O 10.43012679342 3.15422685963 8.672326410749998
O 4.71514926497 0.04570410769 9.06596735904
O 10.287879784970002 0.03650115769 9.03181402904
O 0.95431876503 9.49063856631 3.99069458496
O 6.52704928503 9.48143561631 3.95654125496
O 3.73302964053 4.76394537009 3.9964159018
O 9.30576016053 4.75474242009 3.9622625718
O 1.93643838947 4.77239730391 9.0602460422
O 7.509168909470001 4.76319435391 9.0260927122
