20   
   
Al 10.80727894813 7.3503e-06 1.15255461027
Ga 0.01115322187 -1.703e-07 4.45775241973
Al 4.70677558313 1.5067172302999998 1.1508318702699998
Ga 6.111644676869999 1.5067180597 4.45949795973
Ga 9.31259271072 1.50672027473 3.84921960598
Ga 1.50582754928 1.50671501527 1.7611102240199998
Al 3.212101255720001 2.04473e-06 3.84747406598
Al 7.60633091428 5.13527e-06 1.76283296402
O 8.957349916199998 5.93095e-06 4.992982501299999
O 1.8610822538000005 1.24905e-06 0.6173245287
O 2.8568465512000008 1.50671581095 4.9912597613
O 7.961573708799999 1.50671947905 0.6190700686999999
O 9.48604283809 6.39416e-06 2.45305680131
O 1.3323893319100002 7.8584e-07 3.1572502286899997
O 3.38553947309 1.5067162741600002 2.45133406131
O 7.432880786910002 1.50671901584 3.15899576869
O -0.97844602467 1.50671321909 4.16590646437
O 11.79686628467 1.50672207091 1.4444233656299998
O 5.12205734033 3.33909e-06 4.16762920437
O 5.696374829670001 3.84091e-06 1.44267782563
