80   
   
Al -0.0338327675 -0.0277244775 6.04365509
Ga -0.1014983025 -0.0831734325 18.13096527
Ga 4.8087479575000005 2.7582135825 6.0827044
Ga 4.741082422500001 2.7027646275 18.17001458
In 3.1915322025000004 -0.0326777625 6.06148496
Ga 3.1238666675 -0.0881267175 18.14879514
Al 1.5833829875 2.7631668675 6.06487453
Ga 1.5157174525 2.7077179125 18.15218471
Al 0.0 0.0 0.0
Al -0.067665535 -0.055448955 12.08731018
Ga 4.842580725 2.78593806 0.03904931
Al 4.774915190000001 2.730489105 12.126359489999999
Ga 3.22536497 -0.004953285 0.01782987
Al 3.157699435 -0.06040224 12.10514005
In 1.617215755 2.790891345 0.02121944
In 1.5495502200000002 2.73544239 12.10852962
Al -0.0138945059680001 1.8481968617175 3.030029728033
Ga -0.0815600409680001 1.7927479067174998 15.117339908032998
Ga -1.622043720968 4.6440414917175 3.033419298033
Ga -1.6897092559680005 4.5885925367175 15.120729478032999
In 3.211470464032 1.8432435767175 3.047859598033
Ga 3.143804929032 1.7877946217175 15.135169778033
Ga 1.603321249032 4.6390882067175 3.051249168033
Ga 1.535655714032 4.5836392517175 15.138559348032999
Ga 1.5634447259679998 0.8872455282824999 9.078499891966999
In 1.4957791909679998 0.8317965732824999 21.165810071967
Ga -0.0447044890320003 3.6830901582825 9.081889461967
In -0.1123700240320003 3.6276412032824994 21.169199641967
Ga 4.788809695968001 0.8822922432825 9.096329761966999
Ga 4.7211441609680005 0.8268432882825 21.183639941967
Ga 3.1806604809680006 3.6781368732825 9.099719331967
Ga 3.1129949459680004 3.6226879182824994 21.187029511967
O -0.0249848871545001 1.839108777993 5.011139866534999
O -0.0926504221545001 1.783659822993 17.098450046535003
O -1.6331341021545 4.634953407993 5.014529436535
O -1.7007996371545002 4.579504452993 17.101839616535003
O 3.2003800828455 1.834155492993 5.028969736534999
O 3.1327145478455 1.778706537993 17.116279916535003
O 1.5922308678455002 4.630000122993 5.032359306535
O 1.5245653328455 4.574551167993 17.119669486535003
O 1.5745351071544995 0.8963336120069999 7.097389753465
O 1.5068695721544998 0.8408846570069999 19.184699933464998
O -0.0336141078455003 3.692178242007 7.100779323464999
O -0.1012796428455003 3.636729287007 19.188089503464997
O 4.799900077154501 0.891380327007 7.115219623465
O 4.732234542154501 0.835931372007 19.202529803464998
O 3.1917508621545005 3.687224957007 7.118609193464999
O 3.1240853271545004 3.6317760020069993 19.205919373464997
O 1.5523543447814998 0.8781574445579999 11.059610030469
O 1.4846888097815 0.8227084895579999 23.146920210469
O -0.0557948702185003 3.674002074558 11.062999600469
O -0.1234604052185003 3.618553119558 23.150309780468998
O 4.777719314781501 0.873204159558 11.077439900469
O 4.710053779781501 0.817755204558 23.164750080469
O 3.1695700997815 3.669048789558 11.080829470469
O 3.1019045647815005 3.613599834558 23.168139650468998
O -0.0028041247815001 1.857284945442 1.048919589531
O -0.0704696597815001 1.801835990442 13.136229769531
O -1.6109533397815 4.653129575442 1.052309159531
O -1.6786188747815 4.597680620442 13.139619339531
O 3.2225608452185 1.852331660442 1.066749459531
O 3.1548953102185 1.796882705442 13.154059639531
O 1.6144116302185 4.648176290442 1.0701390295309998
O 1.5467460952185 4.592727335442 13.157449209531
O -0.01691638375 -0.01386223875 3.021827545
O -0.08458191875 -0.06931119375 15.109137725
O 4.82566434125 2.77207582125 3.060876855
O 4.757998806250001 2.71662686625 15.148187035
O 3.2084485862500003 -0.01881552375 3.039657415
O 3.14078305125 -0.07426447875 15.126967595
O 1.6002993712500002 2.77702910625 3.043046985
O 1.53263383625 2.72158015125 15.130357165
O -0.05074915125 -0.04158671625 9.065482634999999
O -0.11841468625 -0.09703567125 21.152792815
O 4.791831573750001 2.74435134375 9.104531945
O 4.72416603875 2.68890238875 21.191842125
O 3.1746158187500004 -0.04654000125 9.083312505
O 3.1069502837500003 -0.10198895625 21.170622685
O 1.56646660375 2.74930462875 9.086702075
O 1.4988010687500002 2.69385567375 21.174012255
