40   
   
In 0.99581360699 6.17035540446 -0.03316079479
In 4.55675185801 3.22285753554 4.96196227979
In 1.79960123189 1.5013876180200003 4.98544264815
Al 3.75296423311 7.89182532198 -0.05664116315
Ga 3.82141253705 1.50153776303 7.84524440634
Al 1.7643543335299998 7.91717309501 2.826064259
In 4.516035090549999 6.16810016643 2.81805231044
In 1.06973178003 3.250610691610001 7.8532563549
In 1.77166130782 8.01045118781 6.92761537757
In 3.80369397216 1.40026380743 1.94290706397
In 1.05224975002 3.29941426449 1.95025010789
In 4.5231055299600005 6.111300730750001 6.920272333649999
In 0.98371647033 0.32428672668 9.987804589649999
Ga 4.62657548033 9.1132588304 4.92535606953
In 1.86564029613 4.9905484572 4.959538912129999
In 3.74465165453 4.446997099880001 9.95362174705
O 4.62838890003 6.3074539110700005 8.8797555224
O 0.96964051059 3.1206742964900003 3.91247913986
O 3.72167606993 1.5967176606300002 3.90346383434
O 1.87635334069 7.83141054693 8.88877082792
O 2.9286677745500005 0.10771696511 6.275793793279999
O 2.6388209703099994 9.296956711570001 1.2341346125
O 5.38612583205 4.771449506110001 1.23849739978
O 0.18136291281 4.633224170570001 6.271431006
O 5.40386031191 7.85191620199 6.31718646172
O 0.16466959201 1.5535570609700002 1.37282056644
O 2.9216132501100005 3.14370914107 1.34992548964
O 2.6469166538099995 6.261764121890001 6.34008153852
O 0.10185771343 7.7623746001699985 1.17548086958
O 5.46470555671 1.64158833315 6.17437764964
O 2.71255172993 3.0905062047700005 6.183727407479999
O 2.85401154021 6.313456728550001 1.16613111174
O 2.04130330527 1.62985028594 8.64527658753
O 3.55360262817 7.79587916278 3.60672220759
O 0.79680680437 6.299525537980001 3.62919921899
O 4.79809912907 3.1262039107400006 8.622799576129998
O 4.65748049063 0.04196614401 8.977491834979999
O 0.94135871037 9.38678396399 3.95480397802
O 3.68842703723 4.71119923005 3.95983566994
O 1.91041216377 4.717550877950001 8.97246014306
