20   
   
In 10.84142986359 5.11331e-06 1.21007196934
Al -0.13248503359 -4.00331e-06 4.77414273066
Ga 4.70073297359 1.5769598083099998 1.22192928434
In 6.008204686409999 1.57695763169 4.76228975566
Ga 9.24994749293 1.57696000216 4.101498359250001
Al 1.45899016707 1.57695743784 1.88272068075
In 3.109257772930001 -1.63284e-06 4.113351334250001
Ga 7.59968705707 2.74284e-06 1.87086336575
O 8.85548463515 6.062e-07 5.32725514895
O 1.85346019485 5.038e-07 0.65695955105
O 2.71478774515 1.5769553012 5.33911246395
O 7.994149914850001 1.5769621388 0.64510657605
O 9.46954966861 3.19167e-06 2.6058548108
O 1.23939516139 -2.08167e-06 3.3783598892
O 3.3288527786100004 1.5769578866699998 2.6177121258
O 7.380084881390002 1.57695955333 3.3665069142
O -1.1192022811 1.57695386107 4.46379559641
O 11.828139941100002 1.5769635789299998 1.52042344359
O 5.0214946089 -8.3393e-07 4.45193828141
O 5.6874502211 1.94393e-06 1.53227641859
