80   
   
Al 1.65212076946 7.43296017103 6.497640779669999
Ga 6.73857008946 7.40760309103 6.47540309967
Al 3.5139338315 1.2866620934900002 1.82465998285
Ga 8.600383151499999 1.26130501349 1.80242230285
Ga 0.97944206378 3.06269604395 1.83245492699
Ga 6.06589138378 3.03733896395 1.81021724699
Al 4.18661253718 5.656926220570001 6.489845835529999
Ga 9.27306185718 5.631569140570001 6.467608155529999
Al 0.9389211764 5.7394603900200005 -0.01480788866
Al 6.025370496400001 5.7141033100200005 -0.03704556866
Ga 4.2111032036 2.97333204998 4.65228606866
In 9.297552523599999 2.94797496998 4.63004838866
Ga 1.65992382984 1.37978585966 4.66643261578
Al 6.746373149839999 1.35442877966 4.64419493578
Al 3.5307863901600003 7.35034116034 9.32338714422
Ga 8.617235710160001 7.32498408034 9.301149464220002
Al 0.8964656041200001 0.27494172288 9.33875966028
Ga 5.982914924119999 0.24958464288 9.31652198028
Ga 4.294163244199999 8.45515062796 4.63235541656
Al 9.3806125642 8.42979354796 4.61011773656
Ga 1.7319164426 4.626856986760001 4.65071442576
Al 6.8183657626 4.601499906760001 4.62847674576
Ga 3.45871240572 4.10323536408 9.320400651080002
Al 8.54516172572 4.07787828408 9.29816297108
Ga 3.5230249862600003 1.36680142477 7.3424765886499985
Ga 8.609474306260001 1.34144434477 7.320238908649999
In 1.6503530659 7.35594106415 2.66324565827
Ga 6.7368023859 7.33058398415 2.64100797827
Al 4.18553654786 5.7195788293700005 2.65518743525
Ga 9.271985867859998 5.6942217493700005 2.6329497552499994
In 0.9878415042999998 3.0031636595500006 7.3505348116699984
Ga 6.0742908243 2.9778065795500006 7.3282971316699985
O 4.281921243059999 5.83448237249 8.32219764605
O 9.36837056306 5.80912529249 8.299959966049999
O 0.9000822071800001 2.8919350473900005 3.66622101583
O 5.98653152718 2.8665779673900005 3.64398333583
O 3.4363032605 1.46508038613 3.65776787449
O 8.5227525805 1.43972330613 3.63553019449
O 1.74570018974 7.2613370337499985 8.33065078739
O 6.83214950974 7.23597995375 8.30841310739
O 2.6963663756200003 0.07615632389 5.87079997745
O 7.782815695619998 0.05079924389 5.848562297449999
O 2.4641549511 8.64110843775 1.17958233019
O 7.5506042711 8.615751357750002 1.15734465019
O 4.98654171962 4.42081946289 1.17639476645
O 10.07299103962 4.39546238289 1.15415708645
O 0.1739796071 4.29644529875 5.873987541189999
O 5.2604289271 4.27108821875 5.851749861189999
O 0.11697270622 7.220998932189999 1.11769153887
O 5.203422026219998 7.19564185219 1.0954538588699998
O 5.042897647059999 1.49598847617 5.783053303489999
O 10.12934696706 1.47063139617 5.760815623489999
O 2.50633073662 2.8530072795900003 5.79163808427
O 7.59278005662 2.8276501995900003 5.76940040427
O 2.65353961666 5.8639801287700015 1.1091067580899998
O 7.73998893666 5.8386230487700015 1.08686907809
O 5.006085141859999 7.27553004233 5.93143903653
O 10.09253446186 7.250172962329998 5.90920135653
O 0.15516852998 1.44204674175 1.28728541955
O 5.24161784998 1.41668966175 1.26504773955
O 2.70574265378 2.9133801808500004 1.27336924145
O 7.792191973779999 2.8880231008500004 1.25113156145
O 2.45551101806 5.804196603230001 5.945355214629999
O 7.541960338059998 5.778839523230001 5.923117534629999
O 1.87879160576 1.4898698195 8.0883026677
O 6.96524092576 1.4645127395000002 8.066064987699999
O 3.30101480912 7.235611533059998 3.39508954886
O 8.387464129119998 7.210254453059998 3.37285186886
O 0.75087300672 5.851572916260001 3.40884117766
O 5.83732232672 5.826215836260001 3.3866034976599995
O 4.42893340816 2.8739084363000003 8.0745510389
O 9.515382728159999 2.8485513563 8.052313358899998
O 4.28893211966 0.00313208535 8.39850026659
O 9.375381439660002 -0.02222499465 8.37626258659
O 0.89364093234 8.72352801865 3.72085117741
O 5.98009025234 8.698170938649998 3.69861349741
O 3.41533598662 4.36356732811 3.71792689255
O 8.501785306619999 4.338210248109999 3.69568921255
O 1.76723706538 4.36309277589 8.401424551449999
O 6.8536863853800005 4.33773569589 8.379186871449999
