40   
   
Ga 0.94491234133 5.73567440378 -0.01511411241
Al 4.21045872867 2.96658784622 4.64639522741
Ga 1.6612925349499998 1.3770797448599998 4.66170259025
Al 3.4940785350500003 7.325182505139998 -0.03042147525
Ga 3.5226664762799995 1.3617141867099998 7.33458507646
Ga 1.6585944389599998 7.350548543849999 2.660357123
Ga 4.18757072058 5.71161062291 2.65106975636
Ga 0.99369019466 3.00065210765 7.3438724431
Ga 1.6622889693699998 7.427591918849998 6.491487331629999
Ga 3.51085317907 1.28153477251 1.82147055563
Ga 0.98274997473 3.06008117009 1.83049759811
Ga 4.19039217371 5.649045521270001 6.48246028915
Ga 0.89984244612 0.27379847958 9.33038744355
Al 4.30054267536 8.445851365539998 4.62656224687
Ga 1.73740724516 4.62260763794 4.64603479627
Ga 3.4629778763200005 4.09704220718 9.31091489415
O 4.28665423264 5.8264272763900005 8.313210249199999
O 0.90416878572 2.88952901145 3.66273569574
O 3.4344546832600003 1.46000380547 3.65305784286
O 1.7563683351 7.25595248237 8.32288810208
O 2.6949437807600005 0.07269963387 5.86452498632
O 2.47206418832 8.63405760565 1.1776003095
O 4.98488854026 4.41236286687 1.17312893982
O 0.18211942882 4.294394372649999 5.868996356
O 5.01040080335 7.26584953665 5.92417657748
O 0.15741904241 1.44122130679 1.28614714956
O 2.70582129351 2.90857199109 1.27106757036
O 2.4619985522499994 5.79849885235 5.93925615668
O 0.12675857152 7.217641570169999 1.11684231802
O 5.0395277294000005 1.4888369103099997 5.77577326116
O 2.50880529322 2.84855787797 5.78558127612
O 2.6574810077 5.857920602510001 1.1070343030599998
O 1.88158556647 1.48688356498 8.08055702447
O 3.30680182185 7.228131911099998 3.39079362681
O 0.7589452440500001 5.8480365247 3.40571050341
O 4.42944214427 2.86697895138 8.065640147869999
O 4.28606674729 -0.00232851757 8.38931689302
O 0.90538773071 8.71852871957 3.71745005398
O 3.41733900537 4.35722550415 3.71323900846
O 1.77411547263 4.358974697849999 8.39352793854
