80   
   
Ga -0.04526104 -0.01743184 5.977477015
Ga -0.13578312 -0.05229552 17.932431045
Al 4.6870223300000005 2.70178694 6.020345985
Ga 4.59650025 2.66692326 17.975300015
Ga 3.1057832 -0.0239745 6.00120168
Ga 3.01526112 -0.05883818 17.95615571
Ga 1.5359780900000002 2.7083296 5.99662132
Ga 1.4454560100000002 2.67346592 17.951575349999995
Al 0.0 0.0 0.0
Ga -0.09052208 -0.03486368 11.95495403
Al 4.73228337 2.71921878 0.04286897
Al 4.64176129 2.6843551 11.997823
Ga 3.15104424 -0.00654266 0.023724665
Ga 3.06052216 -0.04140634 11.978678695
Ga 1.5812391300000002 2.72576144 0.019144305
Ga 1.4907170500000002 2.69089776 11.974098335
Ga -0.018819561134 1.810457324482 2.9935926703685
Ga -0.109341641134 1.775593644482 14.9485467003685
Ga -1.588624671134 4.542761424482 2.9890123103685
Ga -1.679146751134 4.507897744482 14.9439663403685
Al 3.132224678866 1.803914664482 3.0173173353685
Ga 3.041702598866 1.769050984482 14.9722713653685
Al 1.5624195688659996 4.536218764481999 3.0127369753685
Ga 1.4718974888659997 4.501355084482 14.967691005368499
Ga 1.509536611134 0.8804404355179999 8.9805056646315
Ga 1.419014531134 0.8455767555179998 20.9354596946315
Al -0.0602684988659998 3.612744535518 8.9759253046315
Ga -0.1507905788659998 3.5778808555179995 20.930879334631495
Al 4.660580851134001 0.8738977755179999 9.0042303296315
Ga 4.570058771134001 0.8390340955179998 20.9591843596315
Ga 3.0907757411340007 3.606201875518 8.9996499696315
Ga 3.0002536611340007 3.5713381955179995 20.954603999631495
O -0.033656130046 1.80474316733 4.9530096358855
O -0.124178210046 1.76987948733 16.9079636658855
O -1.6034612400459998 4.537047267329999 4.9484292758855
O -1.693983320046 4.502183587329999 16.903383305885498
O 3.117388109954 1.7982005073299998 4.9767343008855
O 3.026866029954 1.76333682733 16.9316883308855
O 1.5475829999539998 4.530504607329999 4.9721539408855
O 1.4570609199539997 4.495640927329999 16.927107970885498
O 1.524373180046 0.8861545926699999 7.021088699114499
O 1.433851100046 0.8512909126699999 18.9760427291145
O -0.0454319299539998 3.61845869267 7.016508339114499
O -0.1359540099539998 3.58359501267 18.971462369114498
O 4.675417420046001 0.8796119326699998 7.044813364114499
O 4.584895340046001 0.8447482526699999 18.999767394114496
O 3.1056123100460007 3.61191603267 7.0402330041145
O 3.0150902300460007 3.5770523526699995 18.995187034114497
O 1.494700042222 0.8747262783659998 10.9399226301485
O 1.404177962222 0.8398625983659999 22.894876660148498
O -0.0751050677779998 3.607030378366 10.9353422701485
O -0.1656271477779998 3.5721666983659994 22.890296300148496
O 4.645744282222001 0.8681836183659998 10.9636472951485
O 4.555222202222001 0.8333199383659998 22.918601325148497
O 3.0759391722220006 3.600487718366 10.959066935148499
O 2.9854170922220007 3.5656240383659994 22.914020965148495
O -0.003982992222 1.816171481634 1.0341757048515
O -0.094505072222 1.7813078016339998 12.9891297348515
O -1.573788102222 4.548475581634 1.0295953448514998
O -1.664310182222 4.513611901634 12.9845493748515
O 3.147061247778 1.809628821634 1.0579003698515
O 3.056539167778 1.7747651416339998 13.0128543998515
O 1.5772561377779997 4.541932921634 1.0533200098515
O 1.4867340577779995 4.507069241634 13.0082740398515
O -0.02263052 -0.00871592 2.9887385075
O -0.1131526 -0.0435796 14.943692537499997
O 4.70965285 2.71050286 3.0316074775
O 4.61913077 2.67563918 14.9865615075
O 3.12841372 -0.01525858 3.0124631725
O 3.03789164 -0.05012226 14.9674172025
O 1.55860861 2.71704552 3.0078828125
O 1.46808653 2.68218184 14.9628368425
O -0.06789156 -0.02614776 8.9662155225
O -0.15841364 -0.06101144 20.9211695525
O 4.664391810000001 2.69307102 9.0090844925
O 4.57386973 2.65820734 20.9640385225
O 3.08315268 -0.03269042 8.9899401875
O 2.9926306 -0.0675541 20.9448942175
O 1.51334757 2.69961368 8.9853598275
O 1.42282549 2.66475 20.9403138575
