80   
   
Al -0.0402736925 -0.0384760175 6.03424872
In -0.1208210775 -0.1154280525 18.10274616
Ga 4.7557001775000005 2.8198712225 6.083210215
Al 4.6751527925000005 2.7429191875 18.151707655
Ga 3.1827421125 0.0062488225 6.055768635
Ga 3.1021947275 -0.0707032125 18.124266075
In 1.5326843725 2.7751463825000005 6.0616903
Ga 1.4521369875 2.6981943475000003 18.13018774
Al 0.0 0.0 0.0
Al -0.080547385 -0.076952035 12.06849744
Ga 4.79597387 2.85834724 0.048961495
In 4.715426485 2.781395205 12.117458935
Al 3.223015805 0.04472484 0.021519915
In 3.14246842 -0.032227195 12.090017355
Ga 1.572958065 2.8136224000000003 0.02744158
Al 1.49241068 2.736670365 12.09593902
Ga -0.0458341679275001 1.841415893918 3.0282443295585
Al -0.1263815529275001 1.764463858918 15.096741769558498
Al -1.6958919079275 4.610313453918 3.0341659945585
Ga -1.7764392929275 4.533361418918 15.1026634345585
In 3.1771816370725 1.886140733918 3.0497642445585
Al 3.0966342520725 1.809188698918 15.1182616845585
Ga 1.5271238970724996 4.655038293918 3.0556859095585
Ga 1.4465765120724996 4.578086258918001 15.1241833495585
Al 1.5382448479274995 0.895254471082 9.0676946904415
Ga 1.4576974629274997 0.8183024360819999 21.1361921304415
Al -0.1118128920725001 3.664152031082 9.073616355441501
In -0.1923602770725001 3.587199996082 21.142113795441496
Ga 4.761260652927501 0.939979311082 9.089214605441502
In 4.6807132679275005 0.8630272760819999 21.157712045441496
In 3.1112029129275007 3.708876871082 9.0951362704415
Al 3.0306555279275007 3.631924836082 21.1636337104415
O -0.0590358843290001 1.8288034553815 5.0062710599745
O -0.139583269329 1.7518514203815 17.0747684999745
O -1.709093624329 4.5977010153815 5.0121927249745
O -1.789641009329 4.5207489803815 17.0806901649745
O 3.1639799206709998 1.8735282953815 5.0277909749745
O 3.0834325356709997 1.7965762603815 17.0962884149745
O 1.5139221806709997 4.642425855381501 5.0337126399745
O 1.4333747956709997 4.5654738203815 17.102210079974498
O 1.5514465643289996 0.9078669096185 7.0896679600255
O 1.4708991793289998 0.8309148746185 19.1581654000255
O -0.0986111756710001 3.6767644696185 7.095589625025499
O -0.1791585606710001 3.5998124346185 19.1640870650255
O 4.774462369329001 0.9525917496185 7.111187875025499
O 4.693914984329001 0.8756397146185 19.179685315025502
O 3.1244046293290006 3.7214893096185 7.117109540025499
O 3.0438572443290006 3.6445372746185 19.1856069800255
O 1.5250431315259998 0.8826420325455 11.0457214208575
O 1.4444957465259998 0.8056899975455 23.1142188608575
O -0.1250146084740001 3.6515395925455 11.051643085857501
O -0.2055619934740001 3.5745875575455 23.120140525857497
O 4.748058936526001 0.9273668725455 11.067241335857501
O 4.667511551526001 0.8504148375455 23.135738775857497
O 3.098001196526001 3.6962644325455 11.073163000857502
O 3.017453811526001 3.6193123975455 23.141660440857496
O -0.032632451526 1.8540283324545 1.0502175991425
O -0.1131798365260001 1.7770762974545 13.118715039142499
O -1.6826901915260002 4.6229258924545 1.0561392641425
O -1.7632375765260002 4.5459738574545 13.1246367041425
O 3.190383353474 1.8987531724545 1.0717375141424998
O 3.109835968474 1.8218011374545 13.1402349541425
O 1.5403256134739995 4.667650732454501 1.0776591791425
O 1.4597782284739995 4.590698697454501 13.146156619142499
O -0.02013684625 -0.01923800875 3.01712436
O -0.10068423125 -0.09619004375 15.0856218
O 4.77583702375 2.83910923125 3.066085855
O 4.69528963875 2.76215719625 15.134583295
O 3.2028789587500004 0.02548683125 3.038644275
O 3.1223315737500004 -0.05146520375 15.107141715
O 1.55282121875 2.7943843912500004 3.04456594
O 1.47227383375 2.71743235625 15.11306338
O -0.06041053875 -0.05771402625 9.05137308
O -0.14095792375 -0.13466606125 21.11987052
O 4.73556333125 2.80063321375 9.100334575
O 4.65501594625 2.72368117875 21.168832015
O 3.1626052662500004 -0.01298918625 9.072892995
O 3.0820578812500004 -0.08994122125 21.141390435
O 1.51254752625 2.75590837375 9.07881466
O 1.43200014125 2.6789563387500004 21.1473121
