80   
   
Ga 1.6093129005300002 7.28900389538 6.39294434925
Ga 6.59538988553 7.26699024038 6.37589060425
Al 3.44214921079 1.2630391586 1.79759420913
Al 8.428226195790002 1.2410255036 1.78054046413
Al 0.95669693939 3.0041651286 1.80408562863
Ga 5.94277392439 2.9821514736 1.78703188363
Al 4.094765171930001 5.54787792538 6.38645292975
Al 9.08084215693 5.5258642703800005 6.36939918475
Al 0.917219332215 5.631794188255 -0.009682957355
Al 5.903296317215001 5.609780533255 -0.026736702355
Al 4.121977842785 2.9162337417450006 4.578564347355
Ga 9.108054827785 2.8942200867450003 4.561510602355
Ga 1.6220291290850002 1.351290459245 4.588945295855
Al 6.608106114085 1.329276804245 4.571891550855
Al 3.4482973259150005 7.206928140755 9.171959364145
Ga 8.434374310915 7.184914485755 9.154905619145
Al 0.8698857507000002 0.26343057279 9.17966392257
Ga 5.8559627357 0.24141691779 9.16261017757
Al 4.20037844574 8.294767645869998 4.56285669089
Ga 9.18645543074 8.272753990870001 4.54580294589
Al 1.6908155112400003 4.5371981233700005 4.57581722339
Ga 6.676892496240001 4.51518446837 4.55876347839
Al 3.3794486852000007 4.02100009529 9.16670339007
Al 8.365525670200002 3.99898644029 9.14964964507
Al 3.4458576994350008 1.337637264865 7.220858487665
Al 8.431934684435001 1.315623609865 7.2038047426650005
Al 1.611207682285 7.216240109715 2.624244259315
Al 6.597284667285 7.194226454715 2.607190514315
In 4.097260842485 5.612153279715001 2.617591615815
Al 9.083337827485002 5.590139624715 2.600537870815
Ga 0.959804539235 2.9417240948650005 7.227511131165
Al 5.945881524235 2.919710439865 7.210457386165
O 4.186380930555 5.720799989565 8.187598047005
O 9.172457915555002 5.698786334565001 8.170544302005
O 0.8772838585250001 2.8352378070550004 3.606213633215
O 5.863360843525001 2.8132241520550005 3.589159888215
O 3.364238351925 1.4367096870550002 3.599319153715
O 8.350315336925 1.4146960320550002 3.582265408715
O 1.699426437155 7.119328109565 8.194492526505
O 6.6855034221550005 7.097314454565 8.177438781504998
O 2.6376087341950005 0.071937278805 5.772738732205
O 7.623685719195 0.049923623805 5.755684987205
O 2.409619795045 8.478719844055 1.167684661455
O 7.395696780045002 8.456706189054998 1.150630916455
O 4.884556512445001 4.339408924055 1.164014661955
O 9.870633497445002 4.317395269055001 1.146960916955
O 0.162672016795 4.211248198805 5.776408731705
O 5.148749001795 4.189234543805 5.7593549867050005
O 0.109616237505 7.084113414995 1.103645743995
O 5.095693222504999 7.062099759994999 1.086591998995
O 4.937114223255 1.4663806571449998 5.689705277345
O 9.923191208255002 1.444367002145 5.672651532345
O 2.449859285455 2.7963892071450003 5.696680368845
O 7.435936270455 2.7743755521450004 5.679626623845
O 2.5968711753050004 5.754104864995001 1.096670652495
O 7.582948160304999 5.7320912099950005 1.079616907495
O 4.897686194310001 7.13683449355 5.83952072862
O 9.88376317931 7.11482083855 5.82246698362
O 0.15010266197 1.4140060613699998 1.2663590839
O 5.1361796469700005 1.39199240637 1.2493053389000002
O 2.6495255979700008 2.85904009637 1.2561192064000002
O 7.63560258297 2.83702644137 1.2390654614
O 2.39826325831 5.69180045855 5.84976060612
O 7.384340243310001 5.669786803550001 5.83270686112
O 1.833316191565 1.456919053265 7.952422744875
O 6.819393176565001 1.4349053982650002 7.935368999875
O 3.228667616395 7.098568447175 3.345019678765
O 8.214744601395001 7.076554792175 3.327965933765
O 0.7296202358950001 5.739183874675001 3.355158791265
O 5.715697220895001 5.717170219675 3.338105046265
O 4.332363572065001 2.8163036257650003 7.942283632375
O 9.318440557065 2.794289970765 7.925229887375
O 4.19641426701 -0.00066686633 8.25855393568
O 9.18249125201 -0.02268052133 8.24150019068
O 0.8676863319900001 8.556847332329998 3.66394607032
O 5.85376331699 8.534833677329999 3.64689232532
O 3.34202216059 4.280497272330001 3.66043729482
O 8.32809914559 4.2584836173300005 3.64338354982
O 1.7220784384100003 4.275683193670001 8.26206271118
O 6.708155423410001 4.2536695386700005 8.24500896618
