40   
   
In 0.0280959562094875 3.7567833096597534 15.227081339903993
In 1.66290123823381 2.7916134033438222 2.650704172963516
In 3.2457152232338102 -0.0479492866561779 2.653126792963516
In -1.58779015176619 2.8400871283438223 2.6457532479635164
In 3.279045895556703 1.828410140746424 0.0049861533824903
In -0.00870829176619 0.0009177670938221 4.634307729213517
Ga -1.5693879794432974 4.718019870746424 7.94214005338249
In 0.0134260055567025 1.878457180746424 7.94456267338249
In 1.6813034105567033 4.669546145746424 7.94709097838249
In 0.0467565812094875 3.7548166659097535 5.296422033653993
In 0.0355602062094875 3.7559966521597534 11.254817617403994
In 3.260385270556703 1.830376784496424 9.935645459632493
In 4.865333456209487 0.8683535659097541 13.248323023653992
In 3.282519471209487 3.7079162559097534 13.245900403653994
In 1.6146420662094876 0.916827290909754 13.243372098653994
In -0.01990466676619 0.0020977533438221 10.592703312963517
O 4.823229770556702 0.904505951496424 1.3579153534324904
O 3.3037283449567023 3.630486133896425 1.3555896382324903
O 1.7025660361567028 0.951040727496424 1.3531624654324903
O -0.02721963176619 0.0028686776938221 14.485521761013517
O 0.0540715462094875 3.7540457415597546 1.4036035856039937
O 1.7050050205567022 2.7554609599964244 14.541111843332489
O 3.2245064461567026 0.0294807775964239 14.543437558532492
O 4.825668754956703 2.7089261839964243 14.545864731332493
O 1.5909404562094878 2.830912476659754 6.649351233703992
O 0.0714390306094877 5.556892659059755 6.647025518503994
O -1.5297232781905123 2.877447252659754 6.644598345703994
O 3.271730930556703 1.829181065096424 3.8978046014324894
O -0.01258970176619 0.0013268289938221 6.699884864913517
O -1.4974272937905129 4.678720855159754 3.9434928336039934
O 0.0220741318094873 1.952740672759754 3.9458185488039934
O 1.623236440609488 4.632186079159753 3.9482457216039935
O -1.6413487617661895 4.757318944093822 11.940787273013516
O 0.0047777826338102 1.8041737464938223 11.943306797813516
O 1.739370283833811 4.706906270093823 11.945936235013518
O 0.0394416162094875 3.755587590259754 9.189240481703994
O 3.256503860556703 1.830785846396424 12.001222595332493
O 4.937294238233809 0.8290544925938221 9.249675962913518
O 3.291167693833809 3.7821996901938233 9.247156438113517
O 1.5565751926338105 0.8794671665938221 9.244527000913518
