40   
   
In 0.0360456957673305 3.4390819241145336 14.125674453896794
Al 1.5090628834386657 2.5905320715837328 2.4569568191120394
Al 3.004215028438665 -0.0091772534162672 2.4493668941120394
Al -1.4898855415613346 2.595562631583733 2.4631919491120398
In 3.001829833294004 1.7264321193017342 -0.0032535567588337
Al 0.0092165559386654 -0.0072567134162672 4.29730350536204
Al -1.476470926705996 4.318731924301734 7.377377423241167
Al 0.0186812182940039 1.7190225993017345 7.369787498241166
In 1.522477498294004 4.3137013643017355 7.371142293241166
In 0.0162959332673305 3.4546320241145336 4.917167047646793
In 0.0281457907673305 3.4453019641145337 10.442271491396797
In 3.021579595794004 1.7108820193017342 9.205253849491166
Al 4.52619631326733 0.837452059114533 12.270147917646794
Al 3.031044168267331 3.4371613841145328 12.277737842646797
Al 1.5272478882673308 0.842482619114533 12.276383047646794
Al 0.0210664134386654 -0.0165867734162672 9.82240794911204
O 4.442627983394003 0.8908005425017342 1.2446794328911666
O 3.007281924194004 3.3865214945017343 1.2519657608911663
O 1.563637495394004 0.8956298801017342 1.2506651576911665
O 0.0288083203386654 -0.0226824126162672 13.43214285236204
O 0.0085540263673305 3.4607276633145334 1.3074321443967942
O 1.5926313031940036 2.5371835361017343 13.482425303591167
O 3.027977362394004 0.0414625841017341 13.475138975591168
O 4.471621791194004 2.5323541985017344 13.476439578791169
O 1.4570940833673307 2.6190004473145327 6.165100037296795
O 0.0217480241673309 5.114721399314534 6.172386365296795
O -1.4218964046326692 2.6238297849145336 6.171085762096793
O 3.009571740194004 1.7203364801017342 3.6064813464911674
O 0.0133245065386654 -0.0104911342162672 6.21267304586204
O -1.4245022168326693 4.290263600914534 3.6692340579967935
O 0.0108438423673309 1.7945426489145333 3.6619477299967937
O 1.4544882711673308 4.285434263314534 3.6632483331967935
O -1.5284397264613343 4.347200299783733 11.08552078876204
O 0.0265185043386653 1.6435026017837329 11.07762726676204
O 1.590466635538666 4.341968517383733 11.07903625356204
O 0.0240378401673305 3.4485363849145334 8.526901950896793
O 3.025687546394004 1.7076475985017343 11.120623389991167
O 4.578165113338665 0.8089836833837328 8.56200469946204
O 3.0232068825386653 3.5126813813837328 8.56989822146204
O 1.4592587513386654 0.8142154657837328 8.56848923466204
