80   
   
In 7.541566677499999 2.5090069975 7.5457752025
Ga 2.5130020175 7.537364642499998 7.5485979725
In 7.5423770175 7.5411627124999985 2.5207198625
Ga 7.5415481625 7.537514722499998 7.5493255875
In 2.5138308725 7.541012632499998 2.5199922475000003
In 7.542395532499999 2.5126549875 2.5171694775
Al 2.5130205325 2.5088569175 7.5450475875
In 2.5138493875 2.5125049075 2.5164418625
In 7.54197310652 4.6831463297 5.03300610632
In 2.51423730152 9.7151519647 0.00722315132
Al 7.54279944348 5.3706713703 0.00488323368
Ga 5.02774587964 7.539511740819998 4.6927137282
Ga -0.00161060536 2.50720594582 9.7170414532
Al -0.00091298964 7.538865534179998 5.375876491800001
In 4.68534320964 5.02317561456 7.54713710968
In 9.714736724639998 -0.00153404044 2.5157086146800003
In 5.36924400036 -0.00531169956 7.54368568032
In 2.51342444348 5.3668733003 5.03276134368
In 7.542817958479999 0.3421636453 0.00133284868
In 2.51425581652 4.6866442397 0.00367276632
In 5.02765167036 2.51050788918 5.373053721800001
In -8.413464e-05 7.5425135241799985 0.3472707668
In -0.00078175036 2.51085393582 4.688435728200001
In 5.37005434036 5.02684401544 2.51863034032
In 0.34069785536 -0.00546177956 7.54295806532
In 4.68619057964 -0.00168412044 2.51498099968
In 2.51344295848 0.3383655753000001 5.02921095868
In 5.02848052536 2.51415587918 0.3444479968
In 0.34150819536 5.02669393544 2.51790272532
In 7.541954591519999 9.7116540547 5.03655649132
In 5.02691702464 7.535863750819998 9.7213194532
In 9.713889354639997 5.02332569456 7.54786472468
O 6.234295283310001 3.92769297727 6.601209354870001
O 3.82026296923 8.954757019629998 8.49516623727
O 8.84996006117 6.123848376969999 1.57452995753
O 6.23397556129 6.118750701129999 8.49351307533
O 6.59678141903 6.232693755780001 3.93772678523
O 8.486694801749998 3.81541848786 8.96490190867
O 1.56786426545 8.84577716914 6.1313174665300005
O 8.487153388769999 6.2311596622200005 6.13047246457
O 3.93127101351 6.59299599016 6.240698199050001
O 8.96020804727 8.485616009959998 3.82903001081
O 6.12330464313 1.56265674524 8.85234003119
O 6.123710171089999 8.48378032964 6.24235038395
O 3.82110226669 6.122326652729999 3.46455809513
O 6.2351345807700005 1.09526261037 1.57060121273
O 1.20543748883 3.92617125303 8.49123749247
O 3.821421988710001 3.93126892887 1.5722543746700002
O 3.45861613097 3.81732587422 6.12804066477
O 1.56870274825 6.234601142140001 1.10086554133
O 8.487533284549999 1.20424246086 3.93444998347
O 1.5682441612299998 3.81885996778 3.935294985430001
O 6.12412653649 3.45702363984 3.82506925095
O 1.09518950273 1.56440362004 6.236737439190001
O 3.93209290687 8.487362884759996 1.21342741881
O 3.93168737891 1.56623930036 3.82341706605
O 1.2065594783099998 8.959698612269998 1.57542639987
O 8.849656484230001 3.93004736463 3.46373774227
O 3.82060357617 1.0915425819700002 6.59885768253
O 1.20627678629 1.09374088613 3.46062935033
O 1.56742493403 1.20038796078 8.96205451023
O 3.45895899675 8.847424122859998 3.93911895367
O 6.5972577804500006 3.82106751414 1.09988897153
O 3.45945461377 1.2061498472199998 1.09758873957
O 8.960664528509998 1.56828633516 1.20926970405
O 3.93085156227 3.45331021496 8.85335773581
O 1.09556883813 6.59466238024 3.82655707619
O 1.09601139609 3.4587705146399994 1.20946665895
O 8.848838071690002 1.09032101773 8.49034105013
O 1.2057410657699998 6.11997226537 6.602029707730001
O 6.23479397383 8.95847704803 3.46690976747
O 8.849120763709998 8.956278743869998 6.60513809967
O 8.487972615969998 8.849631669219999 1.10371293977
O 6.5964385532500005 1.20259550714 6.1266484963300005
O 3.45813976955 6.22895211586 8.965878478470001
O 6.59594293623 8.84386978278 8.968178710430001
O 1.09473302149 8.481733294839998 8.856497745949998
O 6.12454598773 6.59670941504 1.21240971419
O 8.959828711869998 3.45535724976 6.239210373810001
O 8.959386153909998 6.59124911536 8.85630079105
