80   
   
In -0.011988875 -0.058260255 6.18845089
In -0.035966625 -0.174780765 18.56535267
Al 5.05162196 2.927399685 6.225291475000001
In 5.02764421 2.810879175 18.602193255
In 3.381378625 -0.02698651 6.195254855
In 3.357400875 -0.14350702 18.572156635
Al 1.6582544600000002 2.89612594 6.21848751
Ga 1.6342767100000002 2.77960543 18.59538929
In 0.0 0.0 0.0
In -0.02397775 -0.11652051 12.37690178
In 5.063610835 2.98565994 0.036840585
Ga 5.039633085 2.86913943 12.413742365000001
In 3.3933675 0.031273745 0.006803965
In 3.3693897500000003 -0.085246765 12.383705745
Al 1.670243335 2.954386195 0.03003662
In 1.646265585 2.837865685 12.4069384
Al -0.023619618139 1.9298401708785 3.1119800943575
In -0.047597368139 1.8133196608785 15.488881874357501
In -1.746743783139 4.852952620878501 3.1352127493575
In -1.770721533139 4.736432110878501 15.5121145293575
Al 3.369747881861 1.9611139158785 3.1187840593575
In 3.345770131861 1.8445934058785 15.4956858393575
In 1.6466237168609998 4.884226365878501 3.1420167143575
Ga 1.6226459668609998 4.767705855878501 15.5189184943575
In 1.669885203139 0.9080255141215 9.294958305642501
In 1.645907453139 0.7915050041215 21.671860085642496
In -0.0532389618609999 3.8311379641215 9.318190960642498
Al -0.0772167118609999 3.7146174541215 21.6950927406425
In 5.063252703139 0.9392992591215 9.301762270642499
Al 5.039274953139 0.8227787491215 21.678664050642503
In 3.3401285381390005 3.8624117091215 9.3249949256425
Al 3.3161507881390007 3.7458911991215 21.7018967056425
O -0.027549571364 1.9107424592895 5.1405542960995
O -0.051527321364 1.7942219492894995 17.5174560760995
O -1.750673736364 4.833854909289501 5.1637869510995005
O -1.774651486364 4.717334399289501 17.5406887310995
O 3.3658179286359995 1.9420162042895 5.1473582610995
O 3.341840178636 1.8254956942895 17.5242600410995
O 1.642693763636 4.865128654289501 5.1705909160995
O 1.618716013636 4.748608144289501 17.5474926960995
O 1.6738151563639998 0.9271232257105 7.266384103900499
O 1.6498374063639998 0.8106027157105 19.643285883900507
O -0.0493090086359999 3.8502356757105 7.289616758900499
O -0.0732867586359999 3.7337151657105 19.666518538900498
O 5.067182656364 0.9583969707105 7.273188068900499
O 5.043204906364 0.8418764607104999 19.650089848900507
O 3.344058491364001 3.8815094207105 7.296420723900501
O 3.3200807413640008 3.7649889107105 19.6733225039005
O 1.6659552499139998 0.8889278025325 11.323532507384499
O 1.6419774999139998 0.7724072925325 23.700434287384496
O -0.0571689150859999 3.8120402525325 11.3467651623845
O -0.0811466650859999 3.695519742532501 23.7236669423845
O 5.059322749914 0.9202015475325 11.330336472384499
O 5.035344999914 0.8036810375324999 23.707238252384496
O 3.336198584914001 3.843313997532501 11.3535691273845
O 3.3122208349140005 3.726793487532501 23.7304709073845
O -0.019689664914 1.9489378824675 1.0834058926155
O -0.043667414914 1.8324173724675 13.460307672615501
O -1.742813829914 4.8720503324675 1.1066385476155
O -1.766791579914 4.7555298224675004 13.483540327615502
O 3.373677835086 1.9802116274675 1.0902098576155
O 3.3497000850859995 1.8636911174675 13.467111637615503
O 1.650553670086 4.9033240774675 1.1134425126155
O 1.626575920086 4.7868035674675005 13.490344292615502
O -0.0059944375 -0.0291301275 3.094225445
O -0.0299721875 -0.1456506375 15.471127225
O 5.0576163975 2.9565298125 3.1310660300000004
O 5.0336386475 2.8400093025 15.50796781
O 3.3873730625 0.0021436175 3.10102941
O 3.3633953125 -0.1143768925 15.47793119
O 1.6642488975 2.9252560675 3.1242620650000004
O 1.6402711475 2.8087355575 15.501163845
O -0.0179833125 -0.0873903825 9.282676335
O -0.0419610625 -0.2039108925 21.659578115
O 5.0456275225 2.8982695575 9.319516920000002
O 5.0216497725 2.7817490475 21.6964187
O 3.3753841875 -0.0561166375 9.2894803
O 3.3514064375 -0.1726371475 21.66638208
O 1.6522600225 2.8669958125 9.312712955
O 1.6282822725 2.7504753025 21.689614735
