80   
   
Al -0.0801935225 -0.04545591 5.87542673
Al -0.2405805675 -0.13636773 17.62628019
Al 4.3708523025 2.865179105 5.95785664
Al 4.210465257499999 2.774267285 17.7087101
Al 2.9857651575 0.12489315 5.9184915
Al 2.8253781125 0.03398133 17.66934496
Al 1.3048936225 2.694830045 5.91479187
Al 1.1445065775 2.603918225 17.66564533
Al 0.0 0.0 0.0
Al -0.160387045 -0.09091182 11.75085346
Al 4.451045825 2.910635015 0.08242991
Ga 4.290658779999999 2.819723195 11.83328337
Ga 3.06595868 0.17034906 0.04306477
In 2.9055716350000003 0.07943724 11.793918230000001
Al 1.385087145 2.740285955 0.03936514
Al 1.2247001 2.649374135 11.7902186
Al -0.138681698437 1.747169320905 2.949600679483
Al -0.299068743437 1.656257500905 14.700454139483002
Al -1.8195532334370004 4.317106215905 2.945901049483
Al -1.9799402784370004 4.226194395905 14.696754509483002
Al 2.927276981563 1.917518380905 2.992665449483
Al 2.766889936563 1.826606560905 14.743518909483
Al 1.2464054465629992 4.487455275905001 2.988965819483
Al 1.0860184015629992 4.396543455905 14.739819279483001
Al 1.3633817984370002 0.902204814095 8.840617920516998
Ga 1.2029947534370002 0.8112929940949999 20.591471380517
Al -0.3174897365629999 3.472141709095 8.836918290516998
Ga -0.4778767815629999 3.381229889095 20.587771750517
Al 4.429340478437 1.072553874095 8.883682690517
Al 4.268953433437 0.981642054095 20.634536150516997
Al 2.748468943437 3.642490769095 8.879983060517
Al 2.588081898437 3.551578949095 20.630836520516997
O -0.1649691351125 1.732268873607 4.875565561577
O -0.3253561801125 1.641357053607 16.626419021577
O -1.8458406701125003 4.302205768607 4.871865931577
O -2.0062277151125003 4.2112939486070005 16.622719391576997
O 2.9009895448875 1.902617933607 4.918630331577
O 2.7406024998875 1.811706113607 16.669483791576997
O 1.2201180098874993 4.4725548286070005 4.914930701577
O 1.0597309648874993 4.381643008607001 16.665784161576997
O 1.3896692351125002 0.917105261393 6.914653038423
O 1.2292821901125002 0.8261934413929999 18.665506498423003
O -0.2912022998874999 3.487042156393 6.910953408423
O -0.4515893448874999 3.3961303363929995 18.661806868423003
O 4.4556279151125 1.087454321393 6.957717808423
O 4.2952408701125 0.996542501393 18.708571268423
O 2.7747563801125 3.657391216393 6.954018178423
O 2.6143693351125004 3.5664793963929995 18.704871638423
O 1.3370943617615 0.8873043667969999 10.766582802611
O 1.1767073167615 0.7963925467969999 22.517436262611003
O -0.3437771732384999 3.457241261797 10.762883172611
O -0.5041642182384999 3.366329441797 22.513736632611003
O 4.4030530417615 1.057653426797 10.809647572611
O 4.242665996761501 0.966741606797 22.560501032611
O 2.7221815067615003 3.627590321797 10.805947942611
O 2.5617944617615 3.536678501797 22.556801402611
O -0.1123942617615 1.762069768203 1.023635797389
O -0.2727813067615 1.671157948203 12.774489257389
O -1.7932657967615002 4.332006663203 1.019936167389
O -1.9536528417615 4.241094843203 12.770789627389
O 2.9535644182385 1.932418828203 1.066700567389
O 2.7931773732385 1.841507008203 12.817554027389
O 1.2726928832384994 4.502355723203 1.063000937389
O 1.1123058382384994 4.411443903203001 12.813854397389001
O -0.04009676125 -0.022727955 2.937713365
O -0.20048380625 -0.113639775 14.688566825
O 4.41094906375 2.88790706 3.020143275
O 4.250562018749999 2.79699524 14.770996735
O 3.02586191875 0.147621105 2.980778135
O 2.86547487375 0.056709285 14.731631595
O 1.34499038375 2.717558 2.977078505
O 1.18460333875 2.62664618 14.727931965
O -0.12029028375 -0.068183865 8.813140094999998
O -0.28067732875 -0.159095685 20.563993555
O 4.33075554125 2.84245115 8.895570004999998
O 4.170368496249999 2.75153933 20.646423465
O 2.94566839625 0.102165195 8.856204865
O 2.78528135125 0.011253375 20.607058325
O 1.26479686125 2.67210209 8.852505235
O 1.10440981625 2.58119027 20.603358695
