60   
   
Ga -0.00480184386 0.00660636945 2.15550197678
In 5.44338311614 0.07363425445 2.16750315178
Ga -0.02091541386 0.02877539445 9.38873008678
In 5.42726954614 0.09580327945 9.40073126178
In -0.02742529614 0.03773168055 12.31095424322
In 5.42075966386 0.10475956555 12.32295541822
In -0.01131172614 0.01556265555 5.07772613322
In 5.43687323386 0.08259054055 5.08972730822
In 2.6892726120628496 1.62748488856986 6.97883526677522
Ga 8.137457572062852 1.69451277356986 6.99083644177522
In 2.6731590420628497 1.64965391356986 14.21206337677522
Ga 8.12134400206285 1.71668179856986 14.22406455177522
In 2.6988762997828495 1.61427214966986 2.66783131321522
Ga 8.14706125978285 1.68130003466986 2.67983248821522
In 2.68276272978285 1.63644117466986 9.90105942321522
Ga 8.13094768978285 1.7034690596698598 9.91306059821522
In -0.0648298097828498 3.18134038533014 11.79018185178478
In 5.383355150217149 3.24836827033014 11.80218302678478
In -0.0487162397828498 3.15917136033014 4.556953741784779
In 5.399468720217149 3.22619924533014 4.568954916784779
In -0.0552261220628498 3.16812764643014 7.479177898224781
In 5.392958837937149 3.23515553143014 7.491179073224781
In -0.0391125520628498 3.14595862143014 0.24594978822478
In 5.409072407937149 3.21298650643014 0.2579509632247799
O 1.66998418268 0.03172910108 3.6203104169
O 7.11816914268 0.09875698608 3.6323115919
O 1.83700456696 3.29896645612 3.61077146094
O 7.285189526960002 3.36599434112 3.62277263594
O -0.8648854746399999 1.4538324653 3.61031723216
O 4.58329948536 1.5208603503 3.62231840716
O 0.79704192304 1.49664607888 10.84724170406
O 6.24522688304 1.56367396388 10.85924287906
O -1.94925299536 3.2747521847 10.83569475784
O 3.498931964640001 3.3417800696999995 10.84769593284
O 3.74597363732 0.07963683392 10.8581469781
O 9.19415859732 0.14666471892 10.8701481531
O 4.364058638602851 1.65260762019986 8.44364370689522
O 9.812243598602848 1.71963550519986 8.45564488189522
O 1.8648053928828496 0.16857049023986 8.442547805935218
O 7.312990352882849 0.23559837523986 8.454548980935218
O 1.8291889812828497 3.07471098441986 8.433650522155217
O 7.27737394128285 3.14173886941986 8.445651697155219
O 3.5233435189628497 3.07318654799986 1.20411877405522
O 8.971528478962849 3.1402144329998603 1.21611994905522
O 3.5589599305628496 0.16704605381986 1.21301605783522
O 9.00714489056285 0.23407393881986 1.22501723283522
O 1.0240902732428498 1.5891494180398598 1.20302287309522
O 6.472275233242851 1.65617730303986 1.21502404809522
O 1.6099562167571495 3.20646311696014 13.254990291904777
O 7.05814117675715 3.27349100196014 13.26699146690478
O -0.88929702896285 1.7224259870001402 13.253894390944781
O 4.558887931037151 1.78945387200014 13.265895565944781
O -0.9249134405628496 4.62856648118014 13.244997107164782
O 4.52327151943715 4.69559436618014 13.256998282164782
O 0.7692410971171497 4.62704204476014 6.01546535906478
O 6.21742605711715 4.69406992976014 6.02746653406478
O 0.8048575087171501 1.7209015505801402 6.02436264284478
O 6.253042468717148 1.78792943558014 6.03636381784478
O -1.73001214860285 3.14300491480014 6.01436945810478
O 3.7181728113971504 3.21003279980014 6.02637063310478
