80   
   
In 7.651127147499999 2.5447451025000003 7.6621289575
In 2.5497263425 7.6504505225 7.6611349575
In 7.6569311575 7.650957332500002 2.5609447175
In 7.6533362774999985 7.6483512675 7.6646608425
In 2.5533212225 7.653056587500002 2.5574188325
In 7.6547220275 2.5473511675 2.5584128325
In 2.5475172125 2.5468443575000004 7.6586030725
In 2.5511120925 2.5494504225 2.5548869475
In 7.653878931659999 4.750805998280001 5.11136466932
In 2.55607300666 9.85911748328 0.00665454432
In 7.657774253339999 5.447502501720001 0.00799288068
In 5.10357320184 7.650881139920002 4.763987141
In -0.00584074316 2.54676816492 9.861645496
In -0.00052563684 7.65262597008 5.454566649
In 4.753381269419999 5.09774056184 7.661392197319999
In 9.85837695442 -0.00535879316 2.55867007232
In 5.445263090579999 -0.00615110184 7.659339832679998
Ga 2.55056943834 5.446995691720001 5.10818312068
In 7.655565123339999 0.34389633672 0.00546099568
In 2.55386387666 4.755511318280001 0.00412265932
In 5.10087516816 2.5469205500800003 5.455560649000001
In 0.00306924316 7.655232035080002 0.3508505240000001
In -0.00224586316 2.54937422992 4.757929371
In 5.45106710058 5.10006112816 2.55815559268
In 0.34165315558 -0.00405184684 7.65581394768
Ga 4.75476701942 -0.00325953816 2.55514418732
In 2.54836030834 0.3433895267200001 5.10565123568
In 5.10447004816 2.54952661508 0.351844524
Ga 0.34745716558 5.10216038316 2.55462970768
In 7.65608806166 9.85441216328 5.11389655432
In 5.09997832184 7.64827507492 9.867703266
In 9.856991204420002 5.09564130684 7.66491808232
O 6.3254873765 3.98499778755 6.702427587470001
O 3.87661206282 9.08863171451 8.622264310669998
O 8.98392260338 6.211684527890001 1.60164882453
O 6.325098882300001 6.209190195050001 8.62252875233
O 6.69586435976 6.32367947921 3.99887150827
O 8.61016643292 3.87055313513 9.10269806123
O 1.59183580468 8.978517695670002 6.22188243397
O 8.61325432764 6.32175391499 6.22541747153
O 3.98946369653 6.691058150470001 6.33468707019
O 9.09562980681 8.609165724709998 3.88938120395
O 6.210559160589999 1.5851815564900005 8.987624856050001
O 6.215468261069999 8.60909879333 6.33717634481
O 3.8789609935 6.21280390245 3.51712020253
O 6.32783630718 1.10916997549 1.59728347933
O 1.2205257666199998 3.9861171621100007 8.617898965469998
O 3.8793494877 3.9886114949500007 1.59701903767
O 3.5085840102399994 3.87412221079 6.22067628173
O 1.59428193708 6.327248554870001 1.11684972877
O 8.61261256532 1.21928399433 3.99766535603
O 1.59119404236 3.87604777501 3.99413031847
O 6.214984673469999 3.5067435395300004 3.88486071981
O 1.1088185631899998 1.5886359652900002 6.33016658605
O 3.99388920941 8.612620133510001 1.23192293395
O 3.98898010893 1.58870289667 3.88237144519
O 1.2276814515 9.09330927255 1.59771746247
O 8.981607747819998 3.985532359510001 3.51954218567
O 3.87450865838 1.10757155289 6.699307179530001
O 1.2228746972999998 1.1102893500500002 3.51275485733
O 1.5864504147599998 1.21956650421 9.09652986327
O 3.512360507919999 8.97886462013 3.99798793623
O 6.696831489679999 3.875418340670001 1.11916030897
O 3.51103014264 1.22285306999 1.11564357653
O 9.09445938153 1.58795879547 1.23196494519
O 3.98621586181 3.5050527497100004 8.98703955895
O 1.1127532355899998 6.69349304149 3.88291473105
O 1.1132440760699998 3.5101979483300005 1.22740244981
O 8.9767669185 1.10449241745 8.62183032753
O 1.22284062218 6.212269330490001 6.70000560433
O 6.32993971162 9.09023013711 3.52024061047
O 8.981573672699998 9.08751233995 6.70679293267
O 8.61799795524 8.978235185790004 1.12301792673
O 6.69208786208 1.2189370698700002 6.22155985377
O 3.507616880319999 6.322383349330001 9.10038748103
O 6.69341822736 8.97494862001 9.10390421347
O 1.1099889884699998 8.60984289453 8.987582844809998
O 6.21823250819 6.69274894029 1.23250823105
O 9.09169513441 3.5043086485100003 6.33663305895
O 9.09120429393 6.687603741670001 8.992145340189998
