80   
   
Ga 7.470737115 2.4852790675 7.467133924999999
Ga 2.48974563 7.4618328625 7.474531515
In 7.466377825 7.4693411275 2.493186155
Ga 7.46865453 7.4641941675 7.472079254999999
In 2.487468925 7.4669798225 2.495638415
In 7.46846041 2.4904260275 2.488240825
Ga 2.491828215 2.4829177625 7.469586185
In 2.48955151 2.4880647225 2.490693085
In 7.468699085780002 4.638743870700001 4.979823757559999
Ga 2.4854308957800004 9.6204446257 0.00832824756
In 7.466139149220002 5.321023284300001 0.00160322244
Ga 4.97790691156 7.46593698828 4.6452941042
Ga 0.00335730156 2.47951362328 9.621694134199998
In -0.00069235656 7.46287569672 5.3248758258
In 4.6416755673 4.97339539626 7.470999473679998
In 9.6203903473 0.00198856126 2.48470878368
In 5.3208897627 -0.00519856626 7.465720636319999
In 2.48950695422 5.3135150193000005 4.98294858244
In 7.468221734220002 0.3421081843000001 -0.00334210756
In 2.48751348078 4.641529525700001 0.00338291756
Ga 4.98029912844 2.48632190172 5.3174782358
In -0.00296906156 7.468022656719999 0.3459827258
In 0.00108059656 2.48466058328 4.6428010342
Ga 5.3165304727 4.9788634937400005 2.49177286632
In 0.3419808627000001 -0.00755987126 7.468172896319999
Ga 4.6414814473 -0.00037274374 2.48716104368
Ga 2.49158953922 0.3345999193 4.97800325244
In 4.978022423440001 2.49146886172 0.3385851358
Ga 0.3376215727 4.9765021887400005 2.49422512632
In 7.46661650078 9.6176589707 4.984769087559999
In 4.980183616560001 7.46079002828 9.624187204199998
In 9.6205844673 4.97575670126 7.468547213679998
O 6.17520549149 3.88968681488 6.53313419286
O 3.78410267557 8.86553323152 8.411320413259999
O 8.761053407430001 6.066868637080001 1.55512208154
O 6.175153525510001 6.058558541520001 8.407354162339999
O 6.531526454710001 6.172927833439999 3.89640924828
O 8.406872546910002 3.77878947612 8.87200654012
O 1.55252725389 8.75735830588 6.072230471479999
O 8.404588844490004 6.17157160956 6.06628459012
O 3.89359752248 6.527800921310001 6.178398049639999
O 8.870630552120002 8.40470484471 3.78793654572
O 6.067668274480001 1.54723893109 8.761407946279999
O 6.063618750920001 8.40090252789 6.17918830836
O 3.78300054851 6.06257207512 3.4296381471399995
O 6.1741033644300005 1.08672565848 1.55145192674
O 1.1971526325700002 3.88539025292 8.407650258459999
O 3.783052514490001 3.89370034848 1.5554181776599998
O 3.42667958529 3.77933105656 6.06636309172
O 1.55133349309 6.17346941388 1.09076579988
O 8.405678786110002 1.1949005841199998 3.89054186852
O 1.5536171955100002 3.78068728044 3.89648774988
O 6.064608517520001 3.42445796869 3.78437429036
O 1.08757548788 1.54755404529 6.17483579428
O 3.890537765520001 8.405019958909998 1.2013643937199998
O 3.89458728908 1.5513563621100002 3.78358403164
O 1.19193730149 8.871387569879998 1.56163868286
O 8.762817455570001 3.89412639652 3.4250297232599998
O 3.78650379743 1.08044527208 6.53152211154
O 1.19605050551 1.08242909652 3.4259679923399995
O 1.55697684471 1.18650446844 8.87280927828
O 3.42360435691 8.76049023112 3.90051103012
O 6.531242033890001 3.78595147088 1.0859397814799998
O 3.42548582449 1.1954421645599995 1.0848984201199998
O 8.872312302480001 1.55639408631 1.1921073596399998
O 3.8960809421200007 3.41828147971 8.76433657572
O 1.08440008448 6.528939686090001 3.78991243628
O 1.08451573092 3.42477308289 1.19780213836
O 8.76626873851 1.08087132012 8.401133657139999
O 1.19538858443 6.05813249348 6.53774261674
O 6.171702242570001 8.871813617920001 3.4312502284599997
O 8.762155534490002 8.869829793480001 6.53680434766
O 8.40122919529 8.76575442156 1.08996306172
O 6.534601683090001 1.1917686588799998 6.062261309879999
O 3.42696400611 6.166307419120001 8.87683255852
O 6.53272021551 8.75681672544 8.877873919879999
O 1.08589373752 8.395864803689998 8.770664980359998
O 6.062125097880001 6.533977410290001 1.19843576428
O 8.873805955520002 3.42331920391 6.172859903719999
O 8.87369030908 6.527485807110001 8.76497020164
