30   
   
Ga -0.00382213996688 0.005166852112 2.09271573309436
Al -0.01674839996688 0.022640852112 9.17016132809436
In -0.02203038003312 0.029781147888 12.06217545690564
In -0.00910412003312 0.012307147888 4.984729861905641
In 2.622345143437871 1.5730630736281457 6.81190645932838
In 2.609418883437871 1.5905370736281454 13.88935205432838
Ga 2.629989423371631 1.5627293694041455 2.62647499313966
In 2.6170631633716317 1.5802033694041455 9.703920588139662
In -0.0514633833716316 3.0881152405958554 11.521837916860338
Al -0.0385371233716316 3.0706412405958554 4.444392321860341
Al -0.0438191034378716 3.0777815363718557 7.336406450671621
In -0.0308928434378716 3.0603075363718557 0.2589608556716203
O 3.6698120353572 0.045391781524 3.5451454946524
O 0.7914142856415999 1.4228630854396005 3.5367074756392003
O -1.8762371509988 3.1738527430364005 3.5277371422084003
O 1.7871117543584 3.2279815245604007 10.6116054343608
O -0.8452125390012001 1.4241477669636002 10.6113163577916
O 1.6043111746428 0.042400318476 10.6190051053476
O 0.9960035887619512 1.5604439030401454 8.255076810886418
O 3.417581569046352 2.990759306955745 8.255898201873219
O 3.445527302405951 0.1786964545525453 8.26276555844242
O 1.8347529977631511 0.1450331360765453 1.1824832505948195
O 1.8068072644035515 2.9570959884797454 1.1756158940256196
O 4.256330978047552 1.5753485399921454 1.1833046415816195
O -1.6778049380475517 3.075496070007855 12.96500826841838
O 0.7437730422368481 4.505811473923456 12.96582965940518
O 0.7717187755964484 1.6937486215202548 12.972697015974381
O -0.8390555290463514 1.6600853030442553 5.892414708126781
O -0.8670012624059517 4.472148155447456 5.885547351557581
O 1.5825224512380482 3.090400706959855 5.89323609911358
