80   
   
Ga 7.0734857775 2.35634433 7.048797619999999
Al 2.3560848075 7.054311685 7.067848955
Al 7.053033297500001 7.07211256 2.34892174
Ga 7.0639730925 7.064043675 7.056672135
Ga 2.3451450125 7.06238057 2.36009856
Al 7.0625459825000005 2.364413215 2.341047225
Ga 2.3655974925 2.34661234 7.05997444
In 2.3546576975 2.354681225 2.352224045
In 7.0639064000800005 4.39410488954 4.69832421298
In 2.33556563508 9.10014112954 0.00962515298
Al 7.051672879920001 5.04242088546 -0.00835524798
Al 4.70381514644 7.06376080668 4.38825832064
Ga 0.01637934144 2.33826058668 9.099311020639998
In -0.00258532644 7.05293144832 5.03968919436
In 4.394648889120001 4.70466623218 7.059083311259999
Ga 9.101110064119998 0.01476776218 2.33228158126
Al 5.04443438088 -0.00170956218 7.04968874874
Al 2.3547243899200003 5.0246200104600005 4.71057196702
In 7.061185564920001 0.33472154046 -0.01622976298
In 2.3450783200800003 4.392441784540001 0.00175063798
Al 4.71481564356 2.35496409332 5.02063785936
Al -0.01352512144 7.06100033332 0.33193879936
Al 0.00543954644 2.34632947168 4.39156062564
Al 5.023981900880001 4.71405866782 2.34981286874
Ga 0.3365460958800001 -0.01144155218 7.06086556874
Ga 4.393221779120001 0.00503577218 2.34345840126
Al 2.36423707492 0.31692066546 4.70269745202
Al 4.70387584856 2.36303297832 0.31288746436
Al 0.31609361588 4.70432667782 2.36098968874
Al 7.054393715080001 9.10180423454 4.70619872798
In 4.71475494144 7.05569192168 9.09600871564
Al 9.102537174119998 4.71439822218 7.047906491259999
O 5.84469556477 3.68290217827 6.16886713217
O 3.57950986589 8.38289626731 7.952220669289998
O 8.277710147309998 5.74858861249 1.45873807931
O 5.84466139703 5.73242519193 7.9424145692299986
O 6.17350862021 5.84400569061 3.67656121965
O 7.95918049917 3.5799003482500003 8.376329363129999
O 1.46544348963 8.278759326149999 5.74441195967
O 7.94844436599 5.844146884990001 5.724937907549999
O 3.682653341950001 6.17410653942 5.839201580239999
O 8.381713755789999 7.95780654794 3.57126538828
O 5.75049401261 1.4664545218599998 8.274484177119998
O 5.73171586465 7.948444640779998 5.83728930436
O 3.57393522523 5.73582272173 3.24002904783
O 5.83912092411 1.03582863269 1.45667551071
O 1.14092064269 3.670136287510001 7.950158100689999
O 3.57396939297 3.68629970807 1.4664816107699998
O 3.24512216979 3.57471920939 5.732334960349999
O 1.45945029083 5.83882455175 1.03256681687
O 7.95318730037 1.13996557385 3.66448422033
O 1.47018642401 3.57457801501 3.68395827245
O 5.735977448050001 3.24461836058 3.56969459976
O 1.03691703421 1.46091835206 5.83763079172
O 3.66813677739 7.952270378139999 1.13441200288
O 3.68691492535 1.47028025922 3.57160687564
O 1.11635479977 8.388938418269998 1.48016807217
O 8.28597104089 3.69299779731 3.2254189392899995
O 3.59027434231 1.0230883924899998 6.16979077931
O 1.13534600203 1.02306274193 3.23796647923
O 1.48607281521 1.1185054706100002 8.38761391965
O 3.2308397341699995 8.285936588249998 3.68763030313
O 6.17190466463 3.58886085615 1.01761022967
O 3.23912897099 1.13478443499 1.02048981755
O 8.38911451695 1.48420806942 1.11239985024
O 3.69427795079 3.2323063279399995 8.28231808828
O 1.02215324761 6.172490761860001 3.58578511712
O 1.0224004696499998 3.23908219078 1.13284121436
O 8.302275990230001 1.0297864817299998 7.928728107829999
O 1.13265974911 5.72572710269 6.18347724071
O 5.82835644769 8.395636507510002 3.23910540069
O 8.28328478797 8.395662158070001 6.17092970077
O 7.93255797479 8.300219429389998 1.02128226035
O 6.18779105583 1.13278831175 5.72126587687
O 3.2467261253699995 5.829864043850001 8.391285950329998
O 6.17950181901 8.283940465009998 8.388406362449999
O 1.02951627305 7.93451683058 8.29649632976
O 5.724352839210001 6.18641857206 1.12657809172
O 8.39647754239 3.24623413814 5.82311106288
O 8.39623032035 6.17964270922 8.27605496564
