80   
   
Al 6.963925315 2.320606225 6.93244386
Al 2.31936049 6.941225805000001 6.95531197
Ga 6.938479160000001 6.962317940000001 2.30869689
Al 6.952184985000001 6.953207130000001 6.941336880000001
Al 2.305654665 6.950336615000001 2.32267198
Al 6.95021949 2.3297170350000003 2.2998038700000003
Al 2.33110082 2.3086249 6.946418950000001
Al 2.317394995 2.31773571 2.31377896
Ga 6.95200057994 4.32644522096 4.61996564964
Al 2.29372992994 8.95617561096 0.01019376964
Ga 6.93669807006 4.965589754040001 -0.01146488964
In 4.627987828900001 6.95239140758 4.3169849106800005
Al 0.0206094889 2.29869836758 8.95470697068
Al -0.0029726739 6.93917101242 4.960999039320001
Ga 4.3266108368400005 4.6301012849 6.944828221120001
Al 8.957469836839998 0.0185925149 2.2893201211200003
Ga 4.968415298160001 -0.0008701599 6.93403458888
Al 2.3175794000600005 4.944497619040001 4.63515019036
Al 6.94843840006 0.33298884904 -0.02035790964
Ga 2.3054702599400003 4.3235747059600005 0.00130074964
Ga 4.6415921511 2.31855143242 4.938130929320001
In -0.0166784989 6.94828182242 0.32835904932
Al 0.0069036639 2.3078091775800003 4.322066980680001
Al 4.942969143160001 4.640841555100001 2.3102876188800003
Al 0.33559080316 -0.0128514849 6.948009678880001
Al 4.324645341840001 0.0066111899 2.30329521112
Ga 2.3293197300600004 0.31189671404 4.626257170360001
Ga 4.6278863261000005 2.32766224242 0.30549093932
In 0.31014464816 4.628860230100001 2.32426270888
Al 6.94026024994 8.95904612596 4.6288586696400005
Al 4.641693653900001 6.94328059758 8.94962490068
In 8.95943533184 4.642082609900001 6.93085313112
O 5.75350347814 3.6255973679900007 6.067648896920001
O 3.5231607807400005 8.249021572429998 7.82512259636
O 8.14374760666 5.66075246157 1.4316192168400002
O 5.753538084460001 5.64198569801 7.81339888988
O 6.07442568339 5.75301996718 3.6154164989000006
O 7.835708876910002 3.52476570098 8.238533205460001
O 1.44147195649 8.14601879962 5.65384699494
O 7.82234343321 5.75355263222 5.6299929007000005
O 3.62446066513 6.076044379110002 5.7452127094600005
O 8.246292000049998 7.83425683319 3.51091419978
O 5.66323950395 1.4439297106100002 8.139199345020002
O 5.6399577808700005 7.82312617709 5.74246334574
O 3.51607650186 5.645345472010001 3.18746694308
O 5.74641919926 1.02192126757 1.42999324364
O 1.12583237334 3.610190378430001 7.82349662316
O 3.5160418955400004 3.62895714199 1.44171695012
O 3.19515429661 3.5179228728200003 5.6396993411
O 1.4338711030900002 5.74617713902 1.01658263454
O 7.82810802351 1.12492404038 3.6012688450600003
O 1.44723654679 3.51739020778 3.6251229393000006
O 5.64511931487 3.19489846089 3.50990313054
O 1.02328797995 1.43668600681 5.74420164022
O 3.6063404760500006 7.82701312939 1.11591649498
O 3.62962219913 1.4478166629100002 3.51265249426
O 1.09523282814 8.255327757989999 1.4578770169200002
O 8.15401978074 3.63751280243 3.16961449636
O 3.53636926666 1.0070594215700002 6.06934127684
O 1.11874809446 1.00651427801 3.18584096988
O 1.46704734339 1.09932692718 8.2531385589
O 3.17743822691 8.15449609098 3.6287613254600006
O 6.072330956490001 3.5345100296200003 0.99833889494
O 3.18755344321 1.11808121222 1.0024349807
O 8.255319665130001 1.46453560911 1.08970460946
O 3.638913660050001 3.18056379319 8.14863625978
O 1.00496885395 6.0736601006100015 3.5294274650200004
O 1.00516779087 3.18765475709 1.11490542574
O 8.174347151860001 1.01561508201 7.79723882308
O 1.11556019926 5.63343003757 6.085501343640001
O 5.733210713339999 8.26388341843 3.18577456316
O 8.15083188554 8.26442856199 6.069274870120001
O 7.80253263661 8.17161591282 1.0019772811
O 6.092141753090001 1.11644674902 5.62635451454
O 3.19724902351 5.73643281038 8.25677694506
O 6.082026536790001 8.15286162778 8.252680859300002
O 1.01426031487 7.80640723089 8.16541123054
O 5.63066631995 6.090379046810001 1.10647958022
O 8.264611126050001 3.19728273939 5.725688374980001
O 8.26441218913 6.083288082910001 8.14021041426
