40   
   
Al 8.115221524183502 0.0390853644303142 13.296846363785631
Al 4.894751645 0.019630545 -0.040861865
Al 8.960474675816497 1.4644321618196856 2.248720216214368
Al 4.065723030816497 1.4448016168196858 2.2895820812143683
Al 4.87804379 0.02212228875 5.18890099
Al 1.6185889158164968 0.0084815380696858 4.053972756214368
Ga -0.02227714 0.003322325 6.97301714
Al 8.143067949183502 0.0349324581803142 4.580574938785631
Al 2.41928769 1.440472985 6.95188075
Al 7.314039335 1.46010353 6.911018885
Ga 8.126360094183502 0.0374242019303142 9.810337793785632
Al 4.8669052200000005 0.02378345125 8.67540956
Al 3.226039164183504 0.0186242381803142 11.59445394378563
Al 1.6018810608164968 0.0109732818196858 9.283735611214368
Al 5.667603994183503 1.455774898180314 11.57331755378563
Al 10.562355639183505 1.475405443180314 11.53245568878563
O 3.324644004800001 0.01391356585 1.1576268456
O 1.5909652622164967 0.0126012210696858 12.700514009814368
O 5.668546241600001 1.3935781994499998 1.1373359112
O 10.5628330072 1.5273955754500002 1.0964176096
O 8.153983747783505 0.0333045189303142 1.1637965401856314
O 6.4203050052 0.03199217415 12.7066837044
O 8.959532428400001 1.52662886055 12.6847018588
O 4.0652456628 1.39281148455 12.7256201604
O 6.572960308983504 0.0292154790303142 5.779063649385631
O 4.8838358464 0.02125848425 3.3759165336
O 8.916862545783504 1.408880112630314 5.758772714985631
O 4.021646021383504 1.503436398630314 5.799578143385631
O 1.6127968594164968 0.0093453425696858 5.866957212614368
O 9.713175589383503 0.0406494373303142 3.382086228185631
O 12.252403012583503 1.535286123730314 3.360104382585632
O 7.358116246983504 1.401468747730314 3.401022684185631
O 0.0317734206164967 0.0052563026696858 10.482224321814368
O 8.132152150583504 0.0365603974303142 7.997353337385632
O 2.375675657416497 1.3849209362696857 10.461933387414367
O 7.269962423016498 1.5187383122696858 10.421015085814368
O 4.861113163600001 0.02464725575 10.4883940164
O 3.1719887010164967 0.0166902609696858 8.085246900614369
O 5.711216124216497 1.5113269473696858 8.06326505501437
O 10.606432648616495 1.4167706613696855 8.022459626614369
