30   
   
In -0.00336421831036 0.00414701237248 2.0604657156245603
In -0.01474181331036 0.01817197237248 9.02884358562456
Al -0.01939097168964 0.02390290762752 11.87629002437544
Al -0.00801337668964 0.00987794762752 4.907912154375441
In 2.574209444529915 1.5343816074973773 6.706997952570074
In 2.562831849529915 1.5484065674973773 13.675375822570071
Al 2.580937881150635 1.5260875827524172 2.5860665213209533
In 2.5695602861506357 1.5401125427524172 9.554444391320954
Al -0.0431514711506356 3.0218919072475834 11.34578006867905
Al -0.0317738761506356 3.0078669472475834 4.3774021986790475
Al -0.0364230345299156 3.0135978825026237 7.224848637429928
In -0.0250454395299156 2.9995729225026238 0.2564707674299269
O 3.59772556908 0.0366477911976 3.4895648253464
O 0.778758727076 1.3917381030652 3.482684967806
O -1.833009088656 3.1125811157372003 3.4754078618476
O 1.759027682924 3.1562413869348003 10.449161622194
O -0.824139001344 1.3926740342628 10.4486884681524
O 1.57445374092 0.0341264688024 10.4549411746536
O 0.9803647319202752 1.5241580463224973 8.128346802291913
O 3.356332389916276 2.9219726981900966 8.129217204751514
O 3.378957474184275 0.1656104808620973 8.134599508793114
O 1.798814935764275 0.1384964920596973 1.1638472691395132
O 1.7761898514962753 2.8948587093876967 1.1584649650979133
O 4.174782593760273 1.5363111439272974 1.1647176715991132
O -1.6369961837602751 3.0116683460727027 12.767128918400887
O 0.7389714742357242 4.409482997940303 12.767999320860488
O 0.7615965585037244 1.6531207806123027 12.77338162490209
O -0.8185459799162753 1.6260067918099026 5.802629385248488
O -0.8411710641842756 4.382369009137904 5.797247081206887
O 1.557421678079724 3.023821443677503 5.803499787708088
