80   
   
Al 6.845924922499999 2.2829697 6.81181341
Al 2.2791418724999994 6.822748935 6.83590451
Al 6.8177606825 6.845217345 2.26746836
Al 6.832640347499999 6.83611542 6.82079412
Al 2.2642622074999994 6.83185086 2.28257875
Al 6.8310452575 2.292071625 2.25848765
Al 2.2924264475 2.269603215 6.8269238
Al 2.2775467824999995 2.27870514 2.27359804
Al 6.8327461536 4.25447961354 4.53903019672
Al 2.2510834386 8.803360773539998 0.00979553672
Al 6.8160597864 4.88280935646 -0.01307418672
In 4.54743946028 6.834602070899999 4.24206028332
Al 0.02210522528 2.2589879409 8.801515723319998
Al -0.00403538028 6.8199977241 4.87642297668
Al 4.2528955012 4.55195039652 6.82488646652
Al 8.804798886199999 0.02127308652 2.24746960652
In 4.8854558688 0.00062251848 6.81385074348
Al 2.2774409764 4.86034094646 4.55536196328
Al 6.8293443614 0.32966363646 -0.02205489672
Al 2.2643680136 4.250215053540001 0.00081482672
Al 4.562747669719999 2.2802184891 4.85233187668
Al -0.01891504528 6.8290996491 0.32309721668
Al 0.00722556028 2.2680898659 4.24818996332
Al 4.8572916288 4.56287016348 2.26950569348
Al 0.3319573938 -0.01274396652 6.82896113348
Al 4.2513004112 0.00790660152 2.26257999652
In 2.2907255514 0.30719522646 4.54638125328
Al 4.54786800472 2.2893204141 0.29900611668
Al 0.3037931538 4.54950367848 2.28461608348
Al 6.8194615785999995 8.80762533354 4.54801090672
Al 4.562319125279999 6.8255001459 8.79538604332
Al 8.806393976199999 4.56531688152 6.80977607652
O 5.655471691829999 3.56519266884 5.96224942874
O 3.46210260287 8.108500152239998 7.6905336116999985
O 8.002619159129999 5.5664166999599995 1.4049818555
O 5.655274371169999 5.54694187896 7.67821550406
O 5.96935302423 5.65631981577 3.5520119930400003
O 7.702724711829998 3.46673374353 8.0953455056
O 1.4154341041699998 8.00662066587 5.5570423836
O 7.6879559847699985 5.65737717483 5.53158051776
O 3.56185722965 5.97289338891 5.64609030894
O 8.103218465249999 7.702611588629998 3.4487603011
O 5.56820456555 1.42084245537 7.9982508641
O 5.542187564549999 7.690703967089998 5.64287892586
O 3.45471543817 5.549627891159999 3.13214273126
O 5.648084527129999 1.00632040776 1.4038585483
O 1.10756797087 3.54840386004 7.6894103045
O 3.45491275883 3.56787868104 1.41617665594
O 3.1408341057699998 3.45850074423 5.54238016696
O 1.40746241817 5.64808681647 0.9990466544
O 7.694753025829998 1.10819989413 3.5373497764
O 1.4222311452299998 3.4574433851700004 3.56281164224
O 5.54832990035 3.1419271710899994 3.44830185106
O 1.0069686647499998 1.41220897137 5.6456318589
O 3.54198256445 7.693978104629998 1.0961412959
O 3.56799956545 1.42411659291 3.45151323414
O 1.07380897683 8.11407382884 1.43301476874
O 8.014005987869998 3.57782284224 3.1131167517
O 3.47728492413 0.9908025699600002 5.9644372955
O 1.10018080617 0.98953159896 3.13101942406
O 1.4440187892299998 1.08070568577 8.111467433039998
O 3.12106199683 8.01561490353 3.5661108456
O 5.96733748917 3.47594335587 0.9796255236
O 3.1328624197699995 1.09996689483 0.98438443776
O 8.113760614649998 1.4422160789099998 1.0686734489399998
O 3.57788423025 3.12699745863 8.008215741099999
O 0.98654185055 5.96972361537 3.4690162041
O 0.98709399955 3.13329368709 1.09568284586
O 8.036378153169998 1.00074673116 7.6613773912599985
O 1.09618114213 5.53699771776 5.9812754083
O 5.632902205869999 8.12401799004 3.1299548645
O 8.010006323829998 8.12528896104 5.96337273594
O 7.66616834077 8.03411487423 0.98292472696
O 5.98912513317 1.09920565647 5.5282813144
O 3.1428496408299997 5.63887720413 8.1147666364
O 5.97732471023 8.014853665170001 8.11000772224
O 0.9964265153499998 7.672604481089999 8.025718711059998
O 5.53230289975 5.987823101370001 1.0861764188999998
O 8.12364527945 3.14509694463 5.6253759559
O 8.12309313045 5.98152687291 7.99870931414
