80   
   
Ga 6.864160557499999 2.2879710400000004 6.8259865375
Al 2.2859915775 6.837891865 6.8526423625
Al 6.833879617499999 6.862215425 2.2718420175
Ga 6.850299322499999 6.85203357 6.8359161075
Al 2.2695718725 6.84807372 2.2885682725
Al 6.8477408525 2.2981528950000003 2.2619124475
Al 2.2998528125 2.2738293350000003 6.8427127925
Al 2.2834331075 2.28401119 2.2786387025
Al 6.849962651479999 4.26473698046 4.54823906674
Ga 2.25537396648 8.82483966046 0.01082080174
Al 6.831657818519999 4.89563133954 -0.01448460174
Al 4.558819057559999 6.85074601114 4.251885151880001
Al 0.02479225256 2.2623599211400003 8.822755926879998
Ga -0.00325560756 6.83521957386 4.88932548312
Ga 4.26470314084 4.56196981656 6.840451835340001
Al 8.82645241584 0.02223084656 2.24972192034
Al 4.89931022916 -0.00016944156 6.82824749466
Al 2.28376977852 4.87130777954 4.56631574326
Ga 6.84551905352 0.3315688095400001 -0.02441417174
Ga 2.26923520148 4.26077713046 0.00089123174
Ga 4.574913372439999 2.2852987488600003 4.862669658120001
Al -0.01967531256 6.84540142886 0.32525139312
Al 0.00837254756 2.27254177614 4.25868183688
Al 4.86902928916 4.57407494344 2.27410297466
Ga 0.33500248416 -0.01431114656 6.84497374966
Ga 4.262144670840001 0.00808914156 2.26644817534
Al 2.29763101352 0.30724524954 4.55638617326
Al 4.55849366744 2.29548060386 0.29859556812
Ga 0.30472154416 4.55993323844 2.29082922966
Al 6.836101416479999 8.828799510459998 4.5581686367400005
Al 4.57523876256 6.84056415614 8.81595924188
Al 8.82901088584 4.57611152156 6.8237255803400005
O 5.67044477099 3.5732740189000003 5.97508957362
O 3.47188962747 8.12672015302 7.709139603859998
O 8.02142159493 5.58074082358 1.40664712354
O 5.67057508161 5.5593769045 7.69551072398
O 5.98402403935 5.670029243550001 3.5594737586200003
O 7.723276849269999 3.4744146552300004 8.11249258314
O 1.41966744353 8.02476076537 5.57129969326
O 7.70736274285 5.670907235850001 5.54312098998
O 3.57146315047 5.9864833524700005 5.6593995360300005
O 8.122677612709998 7.721599859149999 3.45565123615
O 5.583900808889999 1.42329204125 8.015495845649998
O 5.5562895029299995 7.7087366471299985 5.65584040717
O 3.46328765901 5.5627707411 3.13946523638
O 5.66184280253 1.00932460698 1.40541520614
O 1.1123108350699995 3.55530393642 7.707907686459999
O 3.46315734839 3.5766678555 1.41904408602
O 3.14970839065 3.46601551645 5.55508105138
O 1.41045558073 5.66163010477 1.00206222686
O 7.714064986469999 1.11128399463 3.54325511674
O 1.42636968715 3.46513752415 3.57143382002
O 5.562269279529999 3.14956140753 3.45515527397
O 1.01105481729 1.4144449008500002 5.65890357385
O 3.54983162111 7.71275271875 1.09905896435
O 3.57744292707 1.42730811287 3.45871440283
O 1.0758560859899997 8.133376698900001 1.43767130862
O 8.03363890247 3.58698118302 3.11840968886
O 3.48739478993 0.99235473358 5.97751789854
O 1.10370886661 0.9913545245 3.13823331898
O 1.44999723435 1.08164315355 8.13034453362
O 3.12868816427 8.034517335230001 3.57507431814
O 5.98141671853 3.48502179537 0.98056977826
O 3.14049652785 1.10288485585 0.98584358498
O 8.13321242547 1.44674438247 1.06866962103
O 3.58865080771 3.13321376915 8.02652201115
O 0.98931212389 5.983394721250001 3.47807758065
O 0.98942328793 3.14071426713 1.09856300217
O 8.057876344010001 1.0026680611 7.67688350138
O 1.10009352753 5.54906357698 5.9961451211400005
O 5.64633764007 8.14369002642 3.13703691146
O 8.030023563389998 8.1446902355 5.97632149102
O 7.683735195649998 8.054401606450002 0.98421027638
O 6.00504426573 1.10152742477 5.53948049186
O 3.15231571147 5.651022964630001 8.13398503174
O 5.99323590215 8.03315990415 8.12871122502
O 1.00052000453 7.689300377529999 8.04588518897
O 5.545081622289999 6.0028309908500015 1.08803279885
O 8.14442030611 3.15265003875 5.6364772293500005
O 8.144309142069998 5.995330492870001 8.01599180783
