40   
   
In -0.0036225209469216 -0.0012930495543595 2.0183269262873647
In -0.0247041990530784 -0.0088181004456405 13.764213063712637
In -1.5511328437992369 4.6163841027812635 5.150932165461352
In -0.0012260646322636 1.905648615153141 5.1519779133079195
In 1.571397570740308 4.603210824312365 5.156895593202381
In 1.6381501492596915 0.9406882356876356 10.63576940679762
In 4.760680563799236 0.9275149572187376 10.641732834538647
In 3.210773784632264 3.6382504448468582 10.64068708669208
In 0.0107257910388793 3.709977850729957 2.7131076381669894
Ga 3.1988219289611206 1.8339212092700432 13.079557361833007
Ga -5.92059282311e-05 3.706128173743563 8.72208594294243
In 3.2096069259282314 1.837770886256436 7.070579057057568
In -0.01416336 -0.005055575 7.891269995
Ga 3.214488575 -0.01356123 0.00613905
In -1.595551355 2.790566335 -0.001076545
In 1.6189372199999998 2.777005105 0.005062505
O 1.6100795714264875 2.7754582219197075 3.9829648534497304
O 0.0162378497033701 5.563034465091755 3.9818894619676986
O -1.6009646790654 2.7890049210617622 3.9768323814418065
O 4.8105123990654 2.7548941389382366 11.815832618558192
O 1.599468148573512 2.7684408380802923 11.809700146550268
O 3.1933098702966296 -0.0191354050917552 11.810775538032301
O -0.0106294367859815 3.7023551569686823 14.611404975148691
O 3.2201771567859816 1.8415439030313163 1.1812600248513088
O -0.0073380232191744 -0.002619288554148 4.088459408790304
O -0.0209886967808256 -0.007491861445852 11.694080581209697
O -1.5067595341289888 4.59699133341796 1.3123558622742697
O 0.0058457434181981 1.9514949334186569 1.3133764421781466
O 1.540621152129233 4.584135095350943 1.3181757686032174
O 1.6689265678707668 0.9597639646490564 14.474489231396781
O 4.7163072541289885 0.9469077265820396 14.480309137725731
O 3.2037019765818022 3.592404126581343 14.479288557821853
O -1.7320769741463855 4.714935988991305 9.260855397088408
O -0.0094469741465976 1.70211332390043 9.262017684160861
O 1.7384314721026344 4.700294666691216 9.267483395409089
O 1.4711162478973656 0.8436043933087821 6.5251816045909115
O 4.941624694146387 0.828963071008694 6.531809602911591
O 3.2189946941465974 3.8417857360995695 6.530647315839138
O 0.0037531479491065 3.707488983675205 6.5979915357850825
O 3.205794572050894 1.836410076324794 9.194673464214915
