80   
   
Al 6.8156339525 2.2728579475000004 6.778377615
Al 2.2691682375 6.790585837500001 6.8043044550000005
Al 6.7853700825 6.8145502875 2.255780885
Al 6.8015024025 6.804854602500001 6.787912695
Al 2.2530359175 6.800281522500001 2.272172645
Al 6.7995016325 2.2825536325000004 2.246245805
Al 2.2832997875 2.2585891825 6.794769375
Al 2.2671674675 2.2682848675 2.262637565
In 6.8014629629 4.235528344960001 4.51643086456
Al 2.2388649279 8.76295191996 0.01022589456
Ga 6.7834087521 4.861575575040001 -0.01440417456
Al 4.52617216224 6.80322736908 4.221857706920001
Al 0.02410186724 2.2472662640800003 8.760846196919998
Al -0.00396800724 6.787639990920001 4.85461939308
Al 4.23420237178 4.530751616480001 6.79245567468
Ga 8.76453576678 0.02271941148 2.23439702468
Al 4.86473136822 0.00069551352 6.78069131532
Al 2.2672069071000003 4.8376111250400005 4.53411939544
Al 6.7975403021 0.3295789200400001 -0.02393925456
Al 2.2529964779 4.23095526496 0.00069081456
Al 4.54249770776 2.2699121009200005 4.828692553080001
Al -0.02010032724 6.79733567592 0.32248758308
Al 0.00796954724 2.2569619490800004 4.22871438692
Al 4.83446749822 4.54238785352 2.25809458532
Al 0.33239720322 -0.01357325148 6.79708307532
Ga 4.232201601780001 0.00845064648 2.25078878468
Al 2.2813384571 0.30561447004 4.52458431544
Al 4.52636538776 2.279607785920001 0.29656074308
Al 0.30213333322 4.52811908852 2.27448634532
Al 6.7873314129 8.76752499996 4.52596594456
Al 4.54230448224 6.79353168408 8.753989516919999
Al 8.76653653678 4.5450203814800005 6.77606391468
O 5.63020909634 3.5489939140900004 5.93328758488
O 3.4466228994600003 8.070495984330002 7.654772270239999
O 7.964729186339999 5.54205989847 1.39678935456
O 5.63011349286 5.5212988781100005 7.64152644032
O 5.941514776720001 5.6308144462100005 3.5344445855
O 7.668587886759998 3.45112542245 8.055836255340001
O 1.40886589724 7.968956623150001 5.53180405626
O 7.652706114279998 5.631952183190001 5.5042907529
O 3.54574880023 5.94511513619 5.61953511304
O 8.065025988830001 7.668068572270002 3.43130527432
O 5.5443668525700005 1.41429790653 7.95956176688
O 5.51653303337 7.65536706001 5.6159734957600005
O 3.43846077366 5.524145555910001 3.11726267512
O 5.62204697054 1.00264348567 1.39577798976
O 1.10394068366 3.5310795715300003 7.653760905439999
O 3.43855637714 3.5518405918900005 1.40902381968
O 3.12715509328 3.4423250237900005 5.5161056745
O 1.40008198324 5.62201404755 0.99471400466
O 7.65980397276 1.10418284685 3.51874620374
O 1.41596375572 3.4411872868100004 3.5462595071000003
O 5.52292106977 3.12802433381 3.43101514696
O 1.00364388117 1.4050708977300002 5.61924498568
O 3.5243030174300003 7.658841563470002 1.09098849312
O 3.55213683663 1.4177724099900002 3.43457676424
O 1.0676110613399998 8.07641748909 1.42708261488
O 7.97695629446 3.5624637793300007 3.09671362024
O 3.4626588913400003 0.98609879347 5.9357778445600005
O 1.09577855786 0.98472914311 3.11625131032
O 1.43944448172 1.07485334121 8.0734330755
O 3.10598985176 7.97854899745 3.5496312853400003
O 5.9391992922400005 3.4609244181500003 0.97374540626
O 3.11837117928 1.09538244819 0.9790156229
O 8.07608219523 1.4370829311900002 1.06147646304
O 3.56295569383 3.11210746727 7.97029376432
O 0.98176881757 5.941721481530001 3.45335679688
O 0.98219809837 3.11879732501 1.09069836576
O 8.00105880866 0.99672198091 7.62346764512
O 1.09171357554 5.51067569067 5.95383663976
O 5.60601097866 8.08704067653 3.11477241544
O 7.97289131214 8.08841032689 5.9342989496800005
O 7.629225388279998 7.998286128790002 0.9771171845
O 5.96268001824 1.09459047255 5.50091897466
O 3.12947057776 5.61221505185 8.07680485374
O 5.95029869072 7.97775702181 8.071534637100001
O 0.99258767477 7.636056538810002 7.98907379696
O 5.50571417617 5.961032002730001 1.08025649568
O 8.086901052430001 3.13141798847 5.59719346312
O 8.086471771630002 5.95434214499 7.95985189424
