80   
   
Ga 1.76148283393 7.913328563449999 6.85340440993
Ga 7.195543943930001 7.89601596345 6.82121976493
Ga 3.75462137791 1.3775754903300002 1.92118083795
Ga 9.188682487909999 1.36026289033 1.8889961929500003
Ga 1.0435114812900002 3.25923826085 1.92968043091
Ga 6.4775725912899995 3.24192566085 1.8974957859100003
Ga 4.472592730550001 6.03166579293 6.84490481697
Ga 9.90665384055 6.01435319293 6.81272017197
Ga 0.99198304371 6.0980805376800005 -0.030493804115
In 6.42604415371 6.08076793768 -0.062678449115
Ga 4.50088093629 3.1769985573200006 4.9072301491150006
In 9.93494204629 3.15968595732 4.8750455041150005
In 1.77845730633 1.47954995348 4.9302386212950005
Ga 7.212518416329998 1.46223735348 4.898053976295
Ga 3.77339203367 7.83569401152 9.839515243705
Ga 9.20745314367 7.81838141152 9.807330598705
In 0.97272794682 0.31538546613 9.87658984902
In 6.40678905682 0.29807286613 9.84440520402
In 4.57900342246 8.99977816913 4.87337798094
In 10.01306453246 8.982465569129998 4.841193335940001
In 1.84907638386 4.92861839473 4.906008922240001
In 7.28313749386 4.9113057947300005 4.873824277240001
In 3.70265498542 4.38654524053 9.84395890772
In 9.13671609542 4.36923264053 9.81177426272
In 3.7733550385 1.47550317551 7.757857026525001
In 9.207416148499998 1.4581905755100002 7.725672381525001
In 1.75336653814 7.82263055487 2.797471374955
In 7.18742764814 7.805317954869999 2.765286729955
In 4.4649453978 6.08932473251 2.788370377675
In 9.8990065078 6.07201213251 2.756185732675
In 1.06177617884 3.2088089978700007 7.766958023805001
Ga 6.495837288840001 3.1914963978700004 7.734773378805001
O 4.57711910378 6.22468997845 8.782637356525
O 10.01118021378 6.20737737845 8.750452711525002
O 0.96210736918 3.08195870437 3.870010759195
O 6.396168479180001 3.06464610437 3.837826114195
O 3.6743896734 1.57118830425 3.860007655435001
O 9.1084507834 1.55387570425 3.827823010435
O 1.86483679956 7.73546037857 8.792640460285002
O 7.298897909559998 7.718147778569999 8.760455815285
O 2.8902476659000005 0.09962537157 6.2054727915250005
O 8.324308775899999 0.08231277157 6.1732881465250005
O 2.61783453698 9.18581625989 1.223662073635
O 8.05189564698 9.16850365989 1.191477428635
O 5.3207375804 4.70790689657 1.2256870562750002
O 10.7547986904 4.6905942965700005 1.193502411275
O 0.18734462248 4.57753473489 6.2034478088850005
O 5.62140573248 4.56022213489 6.171263163885
O 0.11288767234 7.67280001829 1.165487264455
O 5.54694878234 7.65548741829 1.133302619455
O 5.39425076478 1.61199897525 6.105359320385
O 10.82831187478 1.5946863752499998 6.073174675385
O 2.68173397904 3.04859090129 6.115663126305001
O 8.11579508904 3.03127830129 6.083478481305001
O 2.82540445808 6.23620809225 1.155183458535
O 8.259465568079998 6.218895492250001 1.122998813535
O 5.34401406725 7.75117557196 6.249075914870001
O 10.77807517725 7.73386297196 6.2168912698700005
O 0.16512987211 1.53498902716 1.3581332656500005
O 5.5991909821100005 1.51767642716 1.3259486206500002
O 2.8871431594100003 3.1026253013600003 1.3356510222500002
O 8.321204269409998 3.0853127013600004 1.30346637725
O 2.62200077995 6.18353929776 6.27155815827
O 8.056061889949998 6.16622669776 6.23937351327
O 2.01776011477 1.6048255030200005 8.549344594575
O 7.45182122477 1.5875129030200004 8.517159949575001
O 3.5182811487500003 7.69965427682 3.569080575065
O 8.952342258749999 7.68234167682 3.536895930065
O 0.79656096335 6.224741095220001 3.591186940765
O 6.230622073350001 6.20742849522 3.559002295765
O 4.73948030017 3.07973868462 8.527238228875001
O 10.17354141017 3.06242608462 8.495053583875
O 4.59599122215 0.03094735866 8.87677181701
O 10.03005233215 0.01363475866 8.844587172010002
O 0.9440610458500002 9.27626363234 3.9143785439900007
O 6.378122155849999 9.25895103234 3.8821938989900007
O 3.646495126230001 4.64999732086 3.917004930950001
O 9.08055623623 4.63268472086 3.884820285950001
O 1.89355714177 4.65721367014 8.874145430050001
O 7.32761825177 4.63990107014 8.84196078505
