80   
   
Al 1.61016281818 7.314179259909999 6.412522665189999
Al 6.61630604818 7.29538653991 6.396019365189999
Al 3.45493080134 1.26956579207 1.80355733733
In 8.461074031339999 1.25077307207 1.78705403733
Al 0.95833018766 3.01464494219 1.80955426939
Ga 5.96447341766 2.99585222219 1.79305096939
Ga 4.10676343186 5.569100109790001 6.40652573313
In 9.11290666186 5.55030738979 6.3900224331299995
Al 0.91717844445 5.6504939046 -0.01029866696
Al 5.92332167445 5.6317011846 -0.02680196696
Ga 4.13605298555 2.9288225204 4.59322918696
Al 9.14219621555 2.9100298004 4.57672588696
Al 1.6270869931100005 1.3572008933600002 4.60353463944
Al 6.63323022311 1.3384081733600002 4.587031339439999
Ga 3.4562515168900005 7.23335570164 9.20058746056
Al 8.46239474689 7.21456298164 9.18408416056
Al 0.87207007536 0.26584642467 9.20886297492
Al 5.87821330536 0.24705370467 9.192359674919999
Al 4.21120822048 8.32468768999 4.576816741919999
In 9.21735145048 8.30589496999 4.56031344192
Al 1.6940413550800002 4.55338886359 4.58997965872
Al 6.700184585080001 4.53459614359 4.57347635872
Al 3.38923694076 4.03714525107 9.195700058120002
Al 8.395380170760001 4.01835253107 9.17919675812
Al 3.4579318261300007 1.34499378301 7.2440205836699985
Al 8.464075056129998 1.3262010630099998 7.22751728367
Al 1.61258106779 7.240774499569999 2.63187390325
Al 6.61872429779 7.22198177957 2.61537060325
Ga 4.10969423603 5.633175174410001 2.62569837967
Al 9.11583746603 5.61438245441 2.60919507967
Al 0.96081865789 2.9525931081700003 7.25019610725
Ga 5.96696188789 2.9338003881700003 7.233692807249998
O 4.19840954765 5.74283348807 8.213375487309998
O 9.20455277765 5.72404076807 8.196872187309998
O 0.8784860472300001 2.8453177105500003 3.61741161457
O 5.88462927723 2.8265249905500003 3.60090831457
O 3.37636804731 1.44393812283 3.61096820371
O 8.382511277310002 1.42514540283 3.59446490371
O 1.7005275475700004 7.14421307579 8.21981889817
O 6.70667077757 7.125420355789999 8.20331559817
O 2.6474508610100003 0.07453629047 5.79136481359
O 7.65359409101 0.05574357047 5.77486151359
O 2.41354819563 8.50768009839 1.17063313405
O 7.41969142563 8.48888737839 1.15412983405
O 4.90117910451 4.356704011469999 1.16776155359
O 9.90732233451 4.337911291469999 1.15125825359
O 0.15981995213 4.22551237739 5.79423639405
O 5.16596318213 4.20671965739 5.77773309405
O 0.10522776895 7.10706662239 1.1062856824899998
O 5.11137099895 7.08827390239 1.08978238249
O 4.955289574409999 1.47496992375 5.708173199869999
O 9.961432804410002 1.45617720375 5.69166989987
O 2.45715129705 2.80760959899 5.71470590649
O 7.46329452705 2.78881687899 5.69820260649
O 2.60336604631 5.77442694715 1.09975297587
O 7.60950927631 5.75563422715 1.08324967587
O 4.911928477700001 7.16363306972 5.85775877549
O 9.9180717077 7.14484034972 5.84125547549
O 0.14961250638 1.4187856422 1.27022062059
O 5.15575573638 1.3999929222 1.25371732059
O 2.658130013580001 2.8701124224000005 1.26007143569
O 7.66427324358 2.8513197024000005 1.24356813569
O 2.4034109705 5.71230628952 5.867907960389999
O 7.4095542005 5.69351356952 5.85140466039
O 1.83873632951 1.4636729555 7.977696682079999
O 6.844879559510001 1.4448802355 7.9611933820799985
O 3.23653348305 7.12387127394 3.3551460744799995
O 8.24267671305 7.10507855394 3.33864277448
O 0.72833632245 5.758469384340001 3.36518363968
O 5.734479552450001 5.739676664340001 3.34868033968
O 4.3469334901100005 2.8290748451000005 7.967659116879998
O 9.35307672011 2.8102821251000005 7.951155816879998
O 4.21226414694 0.00299792814 8.285264501229998
O 9.218407376940002 -0.01579479186 8.268761201229998
O 0.86505294706 8.58531063286 3.67461928277
O 5.871196177059999 8.56651791286 3.65811598277
O 3.3521713013800007 4.29685472098 3.67192629383
O 8.358314531380001 4.27806200098 3.65542299383
O 1.72514579262 4.291453840020001 8.28795749017
O 6.73128902262 4.27266112002 8.27145419017
