80   
   
In 1.69111427791 7.566118182459999 6.59459919165
Ga 6.87063537791 7.538014437459998 6.56769888165
Ga 3.58035453895 1.3087308197799998 1.84980733045
Ga 8.759875638949998 1.2806270747799997 1.82290702045
In 1.00026792651 3.1168586768399997 1.85874234509
Ga 6.17978902651 3.088754931839999 1.83184203509
Ga 4.27120089035 5.7579903254 6.58566417701
Al 9.45072199035 5.7298865804 6.558763867010001
Ga 0.95864641014 5.839038725885 -0.01952288993
Ga 6.13816751014 5.810934980885 -0.04642319993
Al 4.293405814859999 3.026384039115 4.720638974930001
Ga 9.472926914859999 2.998280294115 4.693738664930001
Ga 1.6948333613399995 1.4062280840949997 4.738201931050001
Ga 6.87435446134 1.3781243390949998 4.7113016210500005
Ga 3.60649955366 7.483119140904998 9.46365130395
In 8.786020653659998 7.455015395904998 9.43675099395
Ga 0.92082767751 0.2856260347799999 9.48604659537
Ga 6.10034877751 0.25752228978 9.45914628537
Ga 4.38040667611 8.603673341299999 4.696805165330001
Ga 9.55992777611 8.575569596299998 4.66990485533
Ga 1.76957418291 4.709836930600001 4.720090279530001
Ga 6.94909528291 4.681733185600001 4.693189969530001
Ga 3.53166017071 4.17946244548 9.46276148117
Ga 8.71118127071 4.15135870048 9.43586117117
In 3.59427470899 1.393983076655 7.455144132440002
Al 8.77379580899 1.3658793316549998 7.42824382244
In 1.68606463207 7.485172328384999 2.69939507666
Ga 6.86558573207 7.457068583384999 2.67249476666
Al 4.26691749699 5.819149499805 2.69010242714
Ga 9.44643859699 5.791045754805 2.66320211714
Ga 1.0134218440699998 3.060005905235 7.46443678196
Ga 6.19294294407 3.031902160235 7.43753647196
O 4.36986957989 5.939833041495 8.44690430954
O 9.54939067989 5.911729296495 8.42000399954
O 0.92091726745 2.9443943490649995 3.72179117536
O 6.100438367449999 2.916290604065 3.694890865360001
O 3.50291951109 1.491529063205 3.711962073520001
O 8.682440611089998 1.463425318205 3.6850617635200007
O 1.78786733625 7.392698327354998 8.45673341138
O 6.96738843625 7.364594582354998 8.429833101380002
O 2.75067714853 0.080228097735 5.961639834980001
O 7.930198248529998 0.052124352735 5.93473952498
O 2.5140894944899994 8.791367177944998 1.1906664347200002
O 7.69361059449 8.763263432944997 1.1637661247200002
O 5.08076668853 4.496401322485 1.1879900304800002
O 10.26028778853 4.468297577485 1.16108972048
O 0.18399995449 4.375193953195 5.96431623922
O 5.36352105449 4.347090208195 5.93741592922
O 0.12326145505 7.347526963044999 1.13070043764
O 5.30278255505 7.3194232180449985 1.10380012764
O 5.140716696929999 1.5236855212749996 5.869594037660001
O 10.32023779693 1.4955817762749997 5.84269372766
O 2.55833132705 2.905498292895 5.87960195694
O 7.73785242705 2.877394547895 5.852701646940001
O 2.70564682493 5.965714191425 1.12069251836
O 7.885167924929998 5.937610446425 1.09379220836
O 5.10592439072 7.404053139139998 6.016659130080001
O 10.28544549072 7.375949394139998 5.9897588200800005
O 0.15972930472 1.46797277682 1.3066604083200002
O 5.33925040472 1.43986903182 1.2797600983200002
O 2.75763128732 2.96378683192 1.2894103827200003
O 7.9371523873199985 2.93568308692 1.2625100727200005
O 2.5080224081199995 5.90823908404 6.033909155680001
O 7.687543508119998 5.88013533904 6.007008845680001
O 1.92062562724 1.520439058015 8.21412748939
O 7.10014672724 1.492335313015 8.18722717939
O 3.36750006284 7.362496411704998 3.44152818941
O 8.54702116284 7.334392666704998 3.41462787941
O 0.77007698804 5.955497999404999 3.4585546932100004
O 5.949598088039999 5.927394254405 3.43165438321
O 4.51804870204 2.927437470315 8.197100985590001
O 9.697569802039999 2.899333725315 8.170200675590001
O 4.374480151379999 0.00691884746 8.528152423660002
O 9.55400125138 -0.02118489754 8.501252113660001
O 0.91699662562 8.87764348554 3.7735533813400006
O 6.096517725619999 8.84953974054 3.74665307134
O 3.48290756718 4.4405726016 3.7712346119800007
O 8.662428667179999 4.4124688566 3.74433430198
O 1.80856920982 4.4439897314 8.53047119302
O 6.9880903098200005 4.415885986399999 8.503570883020004
