80   
   
Al 7.1131205275 2.3691575 7.0902565975
In 2.3694601525000003 7.094773075 7.1083174125
Ga 7.0941150675 7.11167634 2.3631904225
Ga 7.1042981775 7.103831535 7.0978990425
Ga 2.3592770425 7.10261788 2.3736087925
In 7.1029374175 2.377002305 2.3555479775
In 2.3782825025000003 2.36009904 7.1006749675
Al 2.3680993925 2.367943845 2.3659663475
Al 7.1042177173 4.41845908562 4.726203823740001
In 2.3503742323 9.15191946562 0.00955601874
Ga 7.0928347677 5.07021955938 -0.00746542374
Ga 4.73109515852 7.10375815424 4.41379373134
Al 0.01526259352 2.35218085424 9.15127827634
Al -0.00235796352 7.09363280076 5.06813247366
Al 4.4193213543 4.73134931222 7.09999545416
In 9.1527986193 0.01357854222 2.3472260191600003
Ga 5.0720816757 -0.00209277222 7.09093611084
Al 2.3681798527 5.05331629438 4.73766156626
Al 7.1016571177 0.33554552438 -0.01510786874
In 2.3591965823 4.41724543062 0.00191357374
Ga 4.74130241148 2.36801722576 5.05007165866
Al -0.01254107352 7.10147760576 0.33342385366
Al 0.00507948352 2.36002565924 4.41656965634
In 5.0530762157 4.7404260677800005 2.36386993584
Ga 0.3372436507000001 -0.01115123222 7.10135448084
In 4.4179605943 0.00452008222 2.35764438916
Al 2.3770022027 0.31864225938 4.73001912126
Al 4.73111930148 2.37586203076 0.31536303866
Al 0.3182381907000001 4.73136760778 2.37428830584
Al 7.0953953673 9.15313312062 4.73384626874
Ga 4.74127826852 7.09591334924 9.14850235134
In 9.1541593793 4.74040777222 7.08957708416
O 5.87766031362 3.70345520161 6.20499532263
O 3.59994456098 8.43083152913 7.99788902635
O 8.325746432019999 5.78032828507 1.46820125625
O 5.87764261838 5.76482343419 7.98857786977
O 6.20913096682 5.876745865410001 3.6983498712
O 8.00384790222 3.59966350457 8.42547281048
O 1.4741451557800005 8.32629756863 5.77707527092
O 7.99386990018 5.87673151139 5.7587655224
O 3.70369546875 6.209248491440001 5.8729184113
O 8.430328397350001 8.002309895000002 3.59271346302
O 5.78220241485 1.4744446464 8.32278203938
O 5.76476764405 7.99343541716 5.8712495613
O 3.59473725638 5.76832017839 3.25887006737
O 5.87245300902 1.0409438508700002 1.46597636365
O 1.14665113798 3.69144709493 7.99566413375
O 3.59475495162 3.70695194581 1.47528752023
O 3.26326660318 3.59502951459 5.7655155188
O 1.46854966778 5.872111875430001 1.03839257952
O 7.99825241422 1.14547781137 3.68679011908
O 1.4785276698200005 3.59504386861 3.7050998676
O 5.76870210125 3.26252688856 3.5909469787000003
O 1.04206917265 1.469465485 5.8711519269800005
O 3.690195155150001 7.9973307336 1.14108335062
O 3.707629925950001 1.47833996284 3.5926158287
O 1.12381682862 8.436915581610004 1.48834751763
O 8.33342182598 3.71306075913 3.24511959135
O 3.60991386702 1.02875098507 6.2056858012500005
O 1.14144383338 1.0289357441900002 3.25664517477
O 1.49329840182 1.12516856541 8.4358344162
O 3.25000441722 8.33312388457 3.70882500548
O 6.20762242078 3.60852679863 1.02430583592
O 3.25767111518 1.14084382139 1.0268328274
O 8.43717273375 1.49147772144 1.1201489763
O 3.71449583235 3.250732595 8.33019800802
O 1.02835892985 6.207905026400001 3.60613423438
O 1.02856885905 3.25754772716 1.1393168663
O 8.348580741380001 1.03485979839 7.97551787237
O 1.13897574402 5.75871462087 6.2187457986500005
O 5.86248370298 8.443024394930001 3.25817958875
O 8.330953736619998 8.442839635810001 6.20722021523
O 7.97909916818 8.34660681459 1.0280309738
O 6.22239315278 1.13865149543 5.75504038452
O 3.26477514922 5.863248581370001 8.43955955408
O 6.21472645482 8.33093155861 8.4370325626
O 1.03522483625 7.98029765856 8.343716413700001
O 5.757901737649999 6.221042785000001 1.13366738198
O 8.444038640149998 3.2638703536 5.85773115562
O 8.443828710950001 6.214227652840001 8.3245485237
