40   
   
In 0.0027803761371742 3.508301257347428 14.179138318390546
Al 1.508246585000609 2.6106760901052306 2.5640249057527638
Al 3.0125547800006087 -0.0009805898947696 2.5734166657527635
Al -1.5042777399993907 2.6169182001052302 2.444913135752764
Al 3.0138270001122165 1.7327816225473414 0.1525545208566902
In 3.0138955238622165 1.7446200425473413 5.674740425856689
Al 5.32962506091e-05 0.0092076601052304 4.295033530752764
In -1.502914154887783 4.366464972547342 7.386965530856689
In 0.0013940401122167 1.7548082925473412 7.396357290856691
Al 1.5096101701122169 4.3602228625473405 7.506077300856689
Al 0.0027346936371742 3.500408977347428 10.497681048390545
Al 3.0139412063622166 1.7525123225473414 9.356197695856691
Al 4.519590054887174 0.8864563273474281 12.466913213390546
In 3.0152818598871733 3.498113007347428 12.457521453390546
In 1.507065729887174 0.892698437347428 12.347801443390546
Al 0.0001218200006091 0.0210460801052304 9.817219435752765
O 4.459228938562217 0.8977373849473413 1.4453711222566905
O 3.015093071362217 3.4049277977473413 1.4363550326566903
O 1.5672055865622163 0.9037298105473414 1.3310238230566904
O 0.0001665888506091 0.0287805145052304 13.425047560352764
O 0.0026214010371742 3.4808361229474283 1.3676670187905462
O 1.5686077916622163 2.5993949801473413 13.585566999456692
O 3.0127436588622167 0.0922045673473414 13.594583089056691
O 4.460631143662216 2.5934025545473416 13.699914298656692
O 1.4480681083371745 2.653526319747428 6.268311744790545
O 0.0039322411371746 5.160716732547428 6.259295655190545
O -1.4439552436628258 2.659518745347428 6.153964445590546
O 3.0138717689622165 1.7405160569473417 3.7603826454566898
O 7.70511506091e-05 0.0133116457052304 6.209391311152764
O -1.442735768562826 4.323614794947428 3.6826785419905455
O 0.0014000986371742 1.816424382147428 3.6916946315905457
O 1.449287583437174 4.317622369347428 3.7970258411905458
O -1.5630926315493907 4.409315202505232 11.091252517152764
O 0.0013878912506092 1.69319225530523 11.101019947552764
O 1.5699326664506097 4.40282340810523 11.215128757952765
O 0.0027109387371742 3.496304991747428 8.583323267990545
O 3.0139649612622166 1.7566163081473414 11.27055547625669
O 4.579768531550608 0.8436060977052303 8.762626374352765
O 3.015288008750608 3.55972904490523 8.752858943952765
O 1.446743233550609 0.8500978921052303 8.638750133552765
