80   
   
In -0.027936135 -0.057346535 6.11876627
Al -0.083808405 -0.172039605 18.35629881
In 4.894402855 2.9245965449999995 6.167241445
Al 4.838530585 2.809903475 18.404773985
In 3.293846985 0.01280065 6.13409477
In 3.237974715 -0.10189242 18.37162731
In 1.572619735 2.85444936 6.151912945
Al 1.516747465 2.73975629 18.389445485
Al 0.0 0.0 0.0
Al -0.05587227 -0.11469307 12.23753254
Al 4.92233899 2.98194308 0.048475175
Al 4.86646672 2.86725001 12.286007715
In 3.32178312 0.070147185 0.0153285
In 3.26591085 -0.044545885 12.25286104
In 1.60055587 2.911795895 0.033146675
In 1.5446836 2.797102825 12.270679215
Ga -0.054187838454 1.8889498193465 3.076369719505
In -0.110060108454 1.7742567493464998 15.313902259504998
Al -1.7754150884540003 4.7305985293465 3.094187894505
In -1.8312873584540008 4.6159054593465 15.331720434504998
In 3.267595281546 1.9590970043465 3.091698219505
In 3.211723011546 1.8444039343465 15.329230759504998
Al 1.5463680315459991 4.8007457143465 3.109516394505
Al 1.4904957615459993 4.686052644346501 15.347048934504999
In 1.598871438454 0.9081530056535 9.194309495495
In 1.542999168454 0.7934599356534999 21.431842035495002
In -0.1223558115459999 3.7498017156534993 9.212127670495
In -0.1782280815459999 3.6351086456534993 21.449660210495
Al 4.920654558454001 0.9783001906535 9.209637995495
Al 4.864782288454001 0.8636071206534999 21.447170535495
Ga 3.1994273084540006 3.8199489006535 9.227456170495
Al 3.1435550384540005 3.7052558306535 21.464988710495003
O -0.063345303507 1.8701516251735 5.082101302811
O -0.119217573507 1.7554585551734998 17.319633842811
O -1.7845725535070005 4.7118003351735 5.099919477811
O -1.8404448235070008 4.5971072651735 17.337452017811003
O 3.258437816493 1.9402988101735 5.097429802811
O 3.202565546493 1.8256057401735 17.334962342811
O 1.5372105664929994 4.7819475201735 5.115247977811
O 1.4813382964929993 4.667254450173501 17.352780517811
O 1.608028903507 0.9269511998265 7.188577912189
O 1.552156633507 0.8122581298264999 19.426110452188997
O -0.1131983464929999 3.7685999098265 7.206396087188998
O -0.1690706164929999 3.6539068398265 19.443928627189
O 4.929812023507001 0.9970983848265 7.203906412188999
O 4.873939753507001 0.8824053148264999 19.441438952189
O 3.2085847735070008 3.8387470948265 7.221724587188999
O 3.1527125035070007 3.7240540248265 19.459257127188998
O 1.589713973401 0.8893548114805 11.200041078801
O 1.533841703401 0.7746617414804999 23.437573618800997
O -0.1315132765989999 3.7310035214805 11.217859253801
O -0.1873855465989999 3.6163104514805 23.455391793801
O 4.9114970934010005 0.9595019964805 11.215369578801
O 4.855624823401 0.8448089264804999 23.452902118801
O 3.190269843401001 3.8011507064805 11.233187753801
O 3.134397573401001 3.6864576364805 23.470720293800998
O -0.045030373401 1.9077480135195 1.070638136199
O -0.100902643401 1.7930549435194998 13.308170676199
O -1.7662576234010006 4.7493967235195 1.088456311199
O -1.8221298934010008 4.6347036535195 13.325988851199
O 3.276752746599 1.9778951985195 1.085966636199
O 3.220880476599 1.8632021285195 13.323499176199
O 1.5555254965989993 4.819543908519501 1.103784811199
O 1.4996532265989992 4.7048508385195005 13.341317351199
O -0.0139680675 -0.0286732675 3.059383135
O -0.0698403375 -0.1433663375 15.296915675
O 4.9083709225000005 2.9532698125 3.10785831
O 4.8524986525000005 2.8385767425 15.34539085
O 3.3078150525 0.0414739175 3.074711635
O 3.2519427825 -0.0732191525 15.312244175
O 1.5865878025 2.8831226275 3.09252981
O 1.5307155325 2.7684295575 15.33006235
O -0.0419042025 -0.0860198025 9.178149405
O -0.0977764725 -0.2007128725 21.415681945
O 4.8804347875000005 2.8959232775 9.22662458
O 4.8245625175 2.7812302075 21.46415712
O 3.2798789175 -0.0158726175 9.193477905
O 3.2240066475 -0.1305656875 21.431010445
O 1.5586516675 2.8257760925 9.21129608
O 1.5027793975 2.7110830225 21.44882862
