80   
   
In 1.7339324069000002 7.8125653416 6.77966003078
Ga 7.096823396900001 7.7962091266 6.75057409078
Al 3.70429240632 1.3601693908 1.90178875544
In 9.06718339632 1.3438131758 1.8727028154400005
In 1.02844340414 3.21818047226 1.90963864734
Al 6.39133439414 3.20182425726 1.88055270734
Ga 4.409781409080002 5.95455426014 6.77181013888
In 9.77267239908 5.93819804514 6.74272419888
Ga 0.97818764699 6.022765786355 -0.02700858816
Ga 6.341078636990001 6.006409571355 -0.05609452816
Ga 4.43904656801 3.136085528645 4.8549836631600005
In 9.80193755801 3.119729313645 4.825897723160001
In 1.75250327757 1.4592672638249995 4.875623298360001
In 7.11539426757 1.442911048825 4.84653735836
In 3.7180065674300007 7.734821151175 9.73274190664
In 9.08089755743 7.718464936174998 9.70365596664
Al 0.95501920299 0.30718168818 9.76472928045
In 6.31791019299 0.29082547318 9.73564334045
In 4.5153840907500005 8.886836252619998 4.82407514429
In 9.87827508075 8.870480037619998 4.79498920429
Ga 1.82174821535 4.86567520892 4.853197096290001
Ga 7.184639205350001 4.84931899392 4.824111156290001
In 3.64865507839 4.32834273188 9.73560732845
In 9.01154606839 4.31198651688 9.70652138845
Ga 3.7198579983300006 1.454269060285 7.672041117560002
Al 9.08274898833 1.437912845285 7.642955177560002
Al 1.7279564282900002 7.724808350114999 2.76987789206
Ga 7.09084741829 7.708452135114999 2.74079195206
Ga 4.40424871703 6.013318692335001 2.76149785536
In 9.76713970703 5.996962477335001 2.73241191536
Ga 1.0435657095900002 3.165758718065 7.680421154260001
In 6.406456699590001 3.149402503065 7.651335214260001
O 4.51194668759 6.144334455685001 8.687609462380001
O 9.87483767759 6.1279782406850005 8.658523522380001
O 0.94716217259 3.0422132199150003 3.827752254800001
O 6.310053162590001 3.025857004915 3.7986663148000006
O 3.62411939117 1.550505697655 3.8185770009
O 8.98701038117 1.5341494826550002 3.789491060900001
O 1.83498946901 7.636041977944998 8.696784716280002
O 7.19788045901 7.619685762945 8.66769877628
O 2.8492774897100004 0.095995423845 6.13629706682
O 8.21216847971 0.079639208845 6.10721112682
O 2.58170183783 9.071947062955 1.21501866172
O 7.944592827830002 9.055590847955001 1.1859327217200002
O 5.249793325210001 4.649811067095 1.2164463038200002
O 10.61268431521 4.633454852095 1.18736036382
O 0.18118600233 4.518131419705 6.134869424720001
O 5.54407699233 4.501775204705 6.105783484720001
O 0.10980209015 7.577344432335 1.15558905728
O 5.47269308015 7.560988217334998 1.12650311728
O 5.32032482731 1.5900342608649998 6.03924042918
O 10.68321581731 1.5736780458649997 6.0101544891800005
O 2.64314596545 3.008481071285 6.04868075548
O 8.00603695545 2.992124856285 6.0195948154800005
O 2.7869809520100004 6.158897621915 1.14614873098
O 8.14987194201 6.142541406915 1.11706279098
O 5.269853911570001 7.653169827119998 6.183950437510001
O 10.63274490157 7.636813612119998 6.15486449751
O 0.16208437731 1.5154069274800002 1.3434123133700002
O 5.524975367310001 1.49905071248 1.31432637337
O 2.8482397920100007 3.06401894658 1.3232365548700002
O 8.21113078201 3.0476627315800005 1.2941506148700002
O 2.58369849687 6.10455780802 6.204126196010001
O 7.94658948687 6.08820159302 6.175040256010001
O 1.98685026267 1.5814008615850002 8.45368503974
O 7.349741252669999 1.565044646585 8.42459909974
O 3.46938171349 7.603244010614999 3.53353561042
O 8.83227270349 7.586887795614999 3.50444967042
O 0.7835033528900002 6.146207881315 3.5533800284200003
O 6.146394342890001 6.129851666315 3.52429408842
O 4.67272862327 3.038436990885 8.43384062174
O 10.03561961327 3.022080775885 8.40475468174
O 4.531352640050001 0.02719718324 8.77800213711
O 9.89424363005 0.01084096824 8.74891619711
O 0.92850207895 9.15984381176 3.87428504189
O 6.291393068950001 9.14348759676 3.845199101890001
O 3.5961502797700007 4.59118639222 3.8762428287900006
O 8.95904126977 4.57483017722 3.84715688879
O 1.86370443923 4.59585460278 8.77604435021
O 7.22659542923 4.57949838778 8.74695841021
