80   
   
Ga 1.7784401041600002 8.00687235018 6.923513077599999
Ga 7.281835919159999 7.99361457518 6.8903440926
Ga 3.80164020616 1.39684559164 1.9407807821
Ga 9.30503602116 1.38358781664 1.9076117971
Ga 1.0544550231 3.29767101428 1.94894522174
Ga 6.5578508381 3.28441323928 1.91577623674
Ga 4.5256252872200005 6.10604692754 6.915348637959999
Ga 10.02902110222 6.092789152540001 6.882179652959999
In 0.999807715645 6.1678314133350005 -0.033364945255
Ga 6.503203530645 6.154573638335001 -0.066533930255
Ga 4.556322209355001 3.2183613966650007 4.958035055255
In 10.059718024354998 3.2051036216650006 4.924866070255
In 1.800513701375 1.499583539285 4.982289298875
In 7.303909516374999 1.4863257642850003 4.949120313875
In 3.8164040036250007 7.931089300715 9.941425861125
In 9.319799818625 7.917831525715 9.908256876125002
In 0.98596769574 0.32352456087 9.98222311257
In 6.48936351074 0.31026678587 9.94905412757
In 4.6308284337 9.107059319070002 4.92149395733
In 10.1342242487 9.093801544070002 4.88832497233
In 1.8693008294 4.98771555577 4.956419159029999
In 7.3726966444 4.97445778077 4.92325017403
In 3.7474953000400006 4.442868324170001 9.94729791087
In 9.250891115039998 4.42961054917 9.91412892587
In 3.821173530675 1.498146267225 7.839983401115
In 9.324569345675 1.484888492225 7.806814416114999
In 1.769848580045 7.913578079995 2.8241385675849995
In 7.273244395045 7.900320304995 2.790969582585
In 4.517391206625 6.162788026475 2.815307193065
In 10.020787021625 6.149530251475 2.782138208065
In 1.073630904095 3.2489363207450004 7.848814775634998
In 6.5770267190950005 3.2356785457450004 7.815645790635
O 4.631544225355 6.302083842645001 8.873763926415
O 10.134940040355 6.288826067645001 8.840594941415
O 0.972364894725 3.1190702709350004 3.910155592885
O 6.475760709725001 3.1058124959350004 3.876986607885
O 3.720443686585 1.593333271095 3.900323816045
O 9.223839501585 1.580075496095 3.867154831045
O 1.8834654334950005 7.827820842485 8.883595703254999
O 7.386861248495 7.814563067485 8.850426718255
O 2.9277193784750004 0.105412502125 6.271610468455
O 8.431115193474998 0.092154727125 6.238441483455
O 2.644093793765 9.292256155615002 1.232813264445
O 8.147489608764998 9.278998380615002 1.199644279445
O 5.385023715225 4.765811773375001 1.236320185205
O 10.888419530225 4.752553998375 1.203151200205
O 0.186789457015 4.631856884365001 6.268103547695
O 5.690185272015 4.618599109365001 6.234934562695
O 0.108381620545 7.760136358395 1.1749147196649998
O 5.611777435545 7.746878583395 1.141745734665
O 5.4624589472150005 1.636820618865 6.169524292435
O 10.965854762215 1.623562843865 6.136355307434999
O 2.714201433595 3.0875399341450005 6.179689536714999
O 8.217597248595 3.0742821591450005 6.146520551715
O 2.8566391341650004 6.309417043115 1.1647494753849998
O 8.360034949164998 6.296159268115001 1.131580490385
O 5.40673741952 7.84546252779 6.312344824429999
O 10.910133234520002 7.83220475279 6.27917583943
O 0.16616993276 1.5530067704900004 1.37206171937
O 5.66956574776 1.5397489954900003 1.33889273437
O 2.92166567766 3.140503679890001 1.34839104377
O 8.425061492660001 3.1272459048900005 1.31522205877
O 2.65124167462 6.257965618390001 6.33601550003
O 8.15463748962 6.244707843390001 6.30284651503
O 2.043165944095 1.6278594461050002 8.640112826615
O 7.546561759094998 1.6146016711050002 8.606943841615
O 3.557460635865 7.790892745855001 3.603858259985
O 9.060856450865002 7.777634970855002 3.570689274985
O 0.8021882931650001 6.297167942155001 3.627112101285
O 6.305584108165 6.283910167155001 3.593943116285
O 4.798438286794999 3.1215842498050006 8.616858985315
O 10.301834101795 3.108326474805001 8.583690000315
O 4.655570243560001 0.03832573767 8.97136959011
O 10.15896605856 0.02506796267 8.938200605109998
O 0.94918990544 9.38345109633 3.95253655989
O 6.45258572044 9.37019332133 3.91936757489
O 3.68976238338 4.70697134497 3.95671041553
O 9.19315819838 4.693713569970001 3.92354143053
O 1.91499776562 4.71480548903 8.967195734469998
O 7.418393580620002 4.70154771403 8.93402674947
