30   
   
Ga -0.00236026579 0.00474984286 2.08589692925
Ga -0.01028062079 0.02068891286 9.08555105425
Ga -0.01348044421 0.02712829714 11.91341132075
Ga -0.00556008921 0.01118922714 4.91375719575
Ga 2.5951354938918247 1.54901853788439 6.751790735982777
Ga 2.5872151388918248 1.56495760788439 13.751444860982776
Ga 2.5998560254718246 1.53951885216439 2.579996877482776
Ga 2.5919356704718246 1.55545792216439 9.579651002482777
In -0.039713715471825 3.0465795778356104 11.411846552517224
In -0.031793360471825 3.0306405078356105 4.412192427517224
In -0.034993183891825 3.0370798921156106 7.240052694017223
In -0.027072828891825 3.02114082211561 0.2403985690172239
O 1.60760204862 0.0223555066 3.50162520654
O 1.77862007234 3.15948997568 3.49466140706
O -0.8221196334599999 1.39628341272 3.4957297539
O 0.7815222376600001 1.42660845432 10.49718202294
O -1.85008294654 3.14310731728 10.4902755461
O 3.60890213138 0.0562303334 10.50352117346
O 4.205097808301825 1.56662420162439 8.167519013272774
O 1.800132812021825 0.1495383807043899 8.168020033792777
O 1.7753761262218253 2.94055210774439 8.161623560632776
O 3.3948587073418253 2.93899900934439 1.163767579672776
O 3.4196153931418247 0.1479852823043899 1.170164052832776
O 0.989893711061825 1.52191318842439 1.164268600192776
O 1.5702485989381754 3.0641852415756103 12.827574829807224
O -0.834716397341825 1.6470994206556104 12.828075850327226
O -0.8594730831418251 4.43811314769561 12.821679377167223
O 0.7600094979781753 4.436560049295609 5.823823396207224
O 0.7847661837781749 1.64554632225561 5.830219869367224
O -1.6449554983018253 3.01947422837561 5.824324416727224
