40   
   
In 12.444748544059143 2.6253019079435345 2.7789894709890133
In 7.541566908581286 2.675903026949356 11.919559775181202
In 5.220105822923239 2.367365158512817 1.715335418769446
In 3.671073402923239 2.5828485135128174 13.322212403769445
In 8.832427258581287 2.496333564449356 2.247162287681205
Ga 11.153888194059146 2.8048713704435344 12.451386958489012
In 9.464760029059146 0.9565012004435344 4.835452208489013
In -0.4696455264187132 0.7597789694493563 10.276562802681203
In 6.639008414059146 2.4857202354435346 4.882968253489013
In 2.252170918581287 2.464493569449356 10.154579562681203
In 8.05791102792752 2.6040752448224675 8.050600934939565
In 11.92840442471291 2.697129690070423 6.647948311230653
In 4.445589612923239 2.475106836012817 7.518773911269446
In 8.304029507923238 0.802232231012817 -0.2666601237305539
In 2.7564614479232388 0.6267366660128171 -0.0971608387305539
In 11.02584595292324 2.5069468310128173 -0.3886433637305539
O 7.819148222327522 0.9403875790224676 3.6254726399395647
O 1.1718088735129113 0.9052499362704232 11.483563683430653
O 12.713247517512912 2.587951456870423 0.7671306388306538
O 7.273067935127521 2.713253478022468 13.931418607339564
O 2.275737569127521 0.6355346686224678 3.7979506127395646
O 6.723534340312911 0.9513881558704232 11.317043086230653
O 10.432092009527521 2.5769135950224675 3.5083687295395647
O 9.55422344311291 2.724291339870423 11.190180516630653
O 4.951606924559568 2.4047156408071086 3.7271940937297807
O 3.9395724101595673 2.5454980994071086 11.31035372392978
O 4.402073363527521 0.6428503556224678 1.112818724939565
O 4.597198545912912 0.9440724688704232 14.002174974030654
O 9.94548401672752 0.9477032660224676 0.9403407521395648
O 10.140609199112909 1.2489253792704231 13.829697001230652
O 7.23276246632752 2.415753539622468 0.9859561553395648
O 12.75355298631291 2.885451395270423 13.712593090830653
O 3.4323106517595683 0.9191608818071092 8.89708410632978
O 5.558646446159568 0.9264765688071092 6.211952218529781
O 8.326410001381287 2.566724793749356 6.038742102781205
O 11.659905451259146 2.734480141143534 8.659807143389013
O 8.984036118559567 0.9652991014071092 8.730563509129778
O 0.0152357929595679 0.6216236584071092 6.3844301913297805
O 6.045254438959568 2.555686897807109 8.779980195929781
O 2.845924895759568 2.394526842407109 6.25756762172978
