40   
   
In 3.0262114233610866 1.751655434042299 0.6096850973130126
Al -0.074062299742392 0.0808871951353199 13.884990826287712
In -1.5262531266389132 4.385563087792299 2.3806620535630123
Al -0.012432706638913 1.762589012792299 2.4044063635630124
In 1.5027307033610868 4.385180012792298 2.397026553563012
Al 3.0068908233610867 1.7727564415422987 4.231856629813013
In 4.505058346381305 0.915888265822381 7.263702461399274
Al 2.991237926381305 3.5388623408223814 7.239958151399273
In 1.4760745163813052 0.916271340822381 7.247337961399274
Al -0.025760799742392 0.0281346763853199 4.829561995037713
Al -0.054741699742392 0.0597861876353199 10.262819293787713
Al -0.0474062036186949 3.5497959195723814 9.034679417649274
Ga 1.450761410257608 2.69292769138532 12.066525250037712
Ga 2.964581830257608 0.0699536163853199 12.090269560037711
Al -1.578222419742392 2.69331076638532 12.050160750037714
In 2.9779099233610866 1.8044079527922987 9.665113928563011
O 1.448023652381305 2.6647434553723808 1.2236237266492749
O -0.0052439508186948 5.182798567372381 1.2008291890492746
O -1.4598008244186949 2.6651112073723806 1.2079138066492747
O 2.958975735361087 1.8250869401422989 13.214842030413012
O -0.006826611742392 0.0074556890353199 1.279833893187713
O -1.5235154596186953 4.413747376272382 13.223563576149274
O -0.0702478564186951 1.8956922642723808 13.246358113749277
O 1.3843090171813053 4.41337962427238 13.239273496149277
O -1.606273283742392 4.44178288093532 6.026446515287713
O -0.0319000469423921 1.7138898429353198 6.051140597687713
O 1.5438698994576083 4.44138448293532 6.043465595287713
O -0.0180388916186949 3.5177223881723814 3.5289786882492744
O 2.996844111361087 1.783728965442299 6.115385826713013
O 4.585078504257608 0.8596684718353199 3.617917854787713
O 3.010705267457608 3.5875615098353206 3.5932237723877125
O 1.434935321057608 0.86006686983532 3.6008987747877126
O 4.425038279361087 0.9721080073422992 10.90948706881301
O 2.971770676161087 3.4901631193422995 10.886692531213011
O 1.5172138025610873 0.9724757593422992 10.893777148813012
O -0.044694987742392 0.0488136637353199 8.379290096887713
O -0.0574529156186949 3.560768443472381 10.918208614549272
O 1.5307815673610867 2.636707898242299 8.420740788313013
O 2.984049170561087 0.1186527862422991 8.443535325913011
O 4.438606044161086 2.6363401462422997 8.43645070831301
