80   
   
In 7.1901304025 2.392776345 7.1638083325
Ga 2.3964423125 7.168427609999999 7.1842595125
In 7.1699615375 7.18682703 2.3877839625
Ga 7.1813718225 7.177727565 7.172507917499999
In 2.3850320275000003 7.177527075 2.3995355575
Ga 7.1787201175 2.40187581 2.3790843775
In 2.4052008925 2.38347639 7.175559927499999
Ga 2.3937906075 2.392575855 2.3908359725
Ga 7.18064155344 4.46442500454 4.775204575719999
Ga 2.37554317844 9.24917573454 0.01093180072
Ga 7.16804010156 5.12427783546 -0.00833623572
In 4.78242602562 7.17824608362 4.46066050856
Ga 0.01766538062 2.37489544362 9.248436473559998
Ga -0.00095168562 7.16770860138 5.12313456144
Ga 4.467911150820001 4.77996958056 7.17483303096
Ga 9.25018895582 0.01341778056 2.36965789596
Ga 5.127420144180001 -0.00371684556 7.164535229039999
Ga 2.394520876560001 5.10587841546 4.78813931428
Ga 7.17679868156 0.33932661546 -0.01703582072
Ga 2.3843017584400004 4.46422451454 0.00223221572
In 4.79273640438 2.39205733638 5.10268338144
Ga -0.01236197062 7.17680806638 0.33841060644
Ga 0.00625509562 2.38399490862 4.46371251856
Ga 5.107251279180001 4.79033383944 2.38851085904
Ga 0.34249063418 -0.01301680056 7.176286824039999
Ga 4.465259445820001 0.00411782556 2.38140949096
Ga 2.4032794565600004 0.32092719546 4.77943972928
Ga 4.78132611938 2.40115680138 0.31795942644
Ga 0.32232176918 4.78103388444 2.40026245404
Ga 7.171882973440001 9.24937622454 4.78390416072
Ga 4.79383631062 7.16914661862 9.24538446356
Ga 9.25284066082 4.78926953556 7.16308143596
O 5.94143367676 3.74142530016 6.26978892663
O 3.64019919912 8.51849114292 8.083185484309999
O 8.414367996079998 5.84159947368 1.4827471612899998
O 5.94190520304 5.82424263324 8.07263815277
O 6.27588972079 5.93842527213 3.73702352557
O 8.09063761995 3.63604600461 8.513153080049998
O 1.4913806334500002 8.41333258479 5.83943854915
O 8.07999810081 5.93795468847 5.81874457023
O 3.7444723732600007 6.27384522885 5.93528181243
O 8.52063172038 8.086654585769999 3.63013376299
O 5.84539356782 1.48821706743 8.40951498861
O 5.827408413540001 8.07704166795 5.93342916097
O 3.6337287532400007 5.82887811984 3.29355496337
O 5.93496323088 1.0518122770799998 1.48015840569
O 1.1607944339200005 3.72870394632 8.08059672871
O 3.633257226960001 3.74606078676 1.49070573723
O 3.29927270921 3.63187814787 5.826320364429999
O 1.4845248100500004 5.93425741539 1.05019080995
O 8.083781796549998 1.15697083521 3.72390534085
O 1.49516432919 3.63234873153 3.74459931977
O 5.83069005674 3.2964581911499997 3.62806207757
O 1.05453070962 1.48364883423 5.93321012701
O 3.72976886218 8.08208635257 1.1538289013899998
O 3.747754016460001 1.49326175205 3.62991472903
O 1.1363353017600002 8.52617603016 1.50551615163
O 8.42247700412 3.75193934292 3.2780103493099992
O 3.64960735108 1.03824883368 6.27052312629
O 1.1543239880400002 1.03909092324 3.2909662077699995
O 1.5111290757900002 1.1350746321299998 8.524799490569999
O 3.2855392449500003 8.42079673461 3.74888030505
O 6.27365843845 3.64678078479 1.03426341415
O 3.29241688581 1.15280297847 1.03707262523
O 8.526750178260002 1.50729342885 1.13010667743
O 3.75587107538 3.28330394577 8.41790972799
O 1.04029519282 6.272967797430001 3.64524221361
O 1.03982719854 3.291889957949999 1.1517572159699998
O 8.43882712824 1.04412738984 8.057827738369998
O 1.15268542588 5.81836407708 6.28533354069
O 5.92555507892 8.532054586320001 3.2928207637099995
O 8.420838441959999 8.531212496760002 6.27237768223
O 8.06403335421 8.43522878787 1.03854439943
O 6.28962318505 1.14950668539 5.81446358495
O 3.30150399155 5.92352263521 8.52908047585
O 6.28274554419 8.41750044153 8.52627126477
O 1.04841225174 8.063009991149999 8.433237212569999
O 5.81929135462 6.28699947423 1.14543416201
O 8.534867237180002 3.2973356225699995 5.918101676389999
O 8.535335231460001 6.2784134620500005 8.411586674029998
