40   
   
Ga 4.5381411093883015 0.8916924327330531 2.43976880981678
Ga 3.019168379388301 3.517844967733053 2.41826068481678
Al 1.5037780643883012 0.8891725527330532 2.4236372498167795
Al 1.4501644156116993 4.440822897266947 12.085922840183219
In -1.584198629388301 4.438303017266947 12.06979128018322
In -0.065225899388301 1.8121504822669467 12.09129940518322
Ga 0.0 0.0 0.0
Ga -0.02881430625 0.0272439825 5.4451174575
In -0.04802384375 0.0454066375 9.075195762500002
In -0.0247994343616991 3.5244064152330536 4.21716827731678
Ga 2.9787419143616987 1.8055890347669468 10.292391812683219
Al 2.99594397 0.03884519 7.27628817
Ga -1.557391805 2.662477845 7.238648484999999
In 1.47697124 2.664997725 7.254780045
Al -0.0536137406116991 3.5516503977330536 9.66228573481678
Al 3.007556220611699 1.7783450522669466 4.84727435518322
O -1.5874092547499998 4.4189179231 1.2032550729000002
O -0.00767761555 1.6877192867000002 1.2256235229
O 1.568328312050001 4.4215385983 1.2200318953000002
O 1.38561416795 0.9084568517 13.2895281947
O 4.541351734749999 0.9110775269 13.3063050171
O 2.9616200955499994 3.642276163300001 13.2839365671
O -0.0724390873616991 3.5694497996330536 13.21976247371678
O 3.0263815673616987 1.7605456503669468 1.2897976162832203
O 4.458092425861699 0.9449579053669468 6.0935456780832205
O 2.9998786050617 3.466064338966948 6.072897878083221
O 1.5451039026616993 0.9425388205669468 6.078059380483221
O 1.4088385773383014 4.3874566294330535 8.431500709516781
O -1.5041499458616991 4.385037544633053 8.41601441191678
O -0.045936125061699 1.8639311110330528 8.436662211916781
O -0.01882534675 0.0177994019 3.5574767389
O -0.05801280325 0.0548512181 10.9628364811
O -0.0347883938616991 3.533850995833053 6.10480899591678
O 2.988730873861699 1.796144454166947 8.404751094083219
O 1.5570200153616989 2.6117321991669478 3.6010030322832205
O 3.015233836161699 0.0906257655669469 3.621650832283221
O 4.470008538561699 2.6141512839669474 3.616489329883221
O -1.516066058561699 2.715844166033053 10.89307076011678
O 1.3969224646383014 2.7182632508330533 10.90855705771678
O -0.0612913561616987 5.239369684433052 10.88790925771678
