40   
   
In 3.443137195573584 -0.0110297725775092 3.061257751345687
Al 6.830400434426416 -0.0630966074224908 11.703095268654312
Ga -0.01862458375 -0.01367902125 1.86019335375
In -0.13037208625 -0.09575314875 13.02135347625
Ga 6.923523353176416 0.0052984988275092 2.402128499904313
Ga 3.3500142768235843 -0.0794248788275092 12.362224520095687
Al 11.236426051823583 1.527751456172491 4.844900395095686
In 9.449671308176415 1.4853897688275093 9.824948109904312
In 4.238404158176416 1.4677368738275094 9.883545014904312
Ga 6.025158901823584 1.5100985611724913 4.903497300095688
Ga 6.867649704661793 -0.0357385656637546 7.982708708797843
In 3.405887925338208 -0.0383878143362454 6.7816443112021565
Ga -0.074498335 -0.054716085 7.440773415
Ga 5.21126715 0.017652895 -0.058596905
Ga 2.60064629 1.534807355 -0.017953805
Ga 7.811913439999999 1.55246025 -0.07655071
O 5.243253250961793 -0.0096521627637546 3.685811137697843
O 5.030284379038208 -0.0644742172362454 11.078541882302156
O 3.4625067641635514 0.0031964106168125 1.1266565146302183
O 6.8110308658364485 -0.0773227906168125 13.63769650536978
O 7.73987358513645 1.4637628976831876 3.668575486069781
O 2.524088457663551 1.3919940647168123 11.117559257130221
O 7.734956624863551 1.5317254323168126 11.059869923930217
O 12.950741752336448 1.6034942652831876 3.6108861528697807
O -0.03799415085 -0.02790520335 3.79479444165
O -0.11100251915 -0.08152696665 11.086752388350002
O 8.603793660861793 0.0202491589362454 1.1184461573978433
O 1.669743969138208 -0.0943755389362454 13.645906862602157
O 11.308465802461791 1.6164488081362456 1.0997742001978432
O 9.377232678963551 1.5187708898168126 13.570981875430217
O 4.166364407538208 1.3790395218637548 13.628671209802157
O 6.09759753103645 1.4767174401831875 1.1574635345697817
O 8.667765760049999 -0.03436095585 8.607262095149999
O 1.60577186995 -0.03976542415 6.15709092485
O 6.887019169026416 -0.0215123828224908 6.048107473254313
O 3.3865184609735843 -0.0526139971775092 8.716245546745686
O 11.164386198450002 1.43905410495 8.590026442349998
O 9.52211014435 1.45200864745 6.07891449085
O 4.3104440115500005 1.55643422505 6.13841896765
O 5.95272006565 1.54347968255 8.64953091915
