40   
   
Ga 0.96068435418 5.819077020109999 -0.0190092584
Ga 4.279115845820001 3.01154718989 4.7040105234
Ga 1.69023173294 1.3994156088899998 4.72203591284
Ga 3.5495684670600003 7.43120860111 -0.03703464784
Ga 3.5820810786900004 1.38493080653 7.42935153475
Ga 1.6874383731100002 7.458840437229998 2.69080258359
Ga 4.25516216009 5.795471538229999 2.68062310335
In 1.01435729171 3.0482997055300003 7.43953101499
Ga 1.69365376383 7.5391534033599985 6.57296972225
Ga 3.56654606197 1.3004950772 1.84278106229
Ga 0.99973731611 3.1055072402 1.85262125997
Ga 4.260462509690001 5.73414124036 6.56312952457
Ga 0.91976896944 0.28282909488 9.45405680475
Ga 4.37170337916 8.57065354664 4.68091405543
Ga 1.7681786083600002 4.69222974164 4.70436796583
Ga 3.5232937402400006 4.161252899879999 9.43060289435
O 4.35941862705 5.91511450893 8.41813106997
O 0.92107727315 2.9335124337100003 3.70943141929
O 3.4901736218100003 1.4826084307099998 3.69874301521
O 1.79032227839 7.366018511929998 8.42881947405
O 2.74036082293 0.07647685021 5.94092209245
O 2.51279750767 8.760056653709999 1.18705728433
O 5.06359303393 4.47628737071 1.18315453145
O 0.18956529667 4.36024613321 5.94482484533
O 5.09312066121 7.3740277286 5.99600026282
O 0.16096963199 1.4629180516399998 1.30241944734
O 2.74905308389 2.9511117766399995 1.28469093014
O 2.50503720931 5.8858340036 6.01372878002
O 0.13091188179 7.32345464239 1.12777742009
O 5.121418037610001 1.5127123936899998 5.84869943813
O 2.55186416839 2.89279476469 5.85955748349
O 2.7004657510100003 5.94337227139 1.11691937473
O 1.91613681118 1.51268973233 8.18627167178
O 3.36156320122 7.3347003813499985 3.42996981734
O 0.7740516500200001 5.93503369635 3.44748628294
O 4.50364836238 2.91235641733 8.16875520618
O 4.357675146149999 0.00143384324 8.49838073776
O 0.92354561385 8.847513758759998 3.76174645524
O 3.4734260989900005 4.42210121176 3.75818298492
O 1.80779466101 4.42684639024 8.501944208079998
