40   
   
Al 0.94466701653 5.84787269348 -0.01880837004
In 4.29490958347 3.04212051652 4.73438426504
Ga 1.69163971231 1.41254235476 4.749238651760001
Al 3.54793688769 7.47745085524 -0.03366275676
Al 3.5951112275600003 1.4058533029 7.473557652490002
Al 1.6668347494 7.49775487714 2.70613498661
Al 4.26217108426 5.837741982100001 2.69971033949
In 0.9997748927 3.06586619794 7.47998229961
In 1.66738846445 7.57864410834 6.60895722727
In 3.58754272531 1.3206945689 1.85724932483
In 0.99254946229 3.12296005018 1.8633094426700003
Al 4.26238172747 5.77637862706 6.60289710943
In 0.91294837578 0.28829360886 9.50558175765
Al 4.36552132214 8.625371622219998 4.71032255305
Al 1.75676230154 4.71975208062 4.73100940825
Al 3.52170739638 4.19391315046 9.48489490245
O 4.35882592564 5.9586282703 8.46787489103
O 0.9113819118 2.95000843526 3.7299235838700007
O 3.50723285442 1.50337441958 3.722952142830001
O 1.76297498302 7.405262285979998 8.474846332070001
O 2.75399653432 0.0882937111 5.97628147463
O 2.495634594 8.807819119580001 1.19529114507
O 5.08462409982 4.5161333791 1.19561028963
O 0.1650070285 4.37997945158 5.975962330070001
O 5.09585450065 7.42664098836 6.0336048587
O 0.15447810639 1.4698987926 1.3093163697000003
O 2.7574477896900005 2.9750059414 1.2947809461000002
O 2.49288481735 5.92153383956 6.0481402823
O 0.10042775792 7.355360808539999 1.13268194899
O 5.14857983376 1.54037251078 5.8865807963100005
O 2.55255735522 2.91588023334 5.89373450199
O 2.6964502364600005 5.97985308598 1.12552824331
O 1.91410638043 1.5274069904000005 8.232200647700001
O 3.35399702085 7.37994886432 3.4515520011
O 0.7512417574500001 5.96374958192 3.4658595939000003
O 4.51686164383 2.9436062728000003 8.217893054900001
O 4.38116601723 0.01966025888 8.549580286320001
O 0.8895874147700001 8.889308519119998 3.7814893286800006
O 3.4782338487500004 4.4553701924 3.78217300252
O 1.7925195832500005 4.4535985856 8.54889661248
