40   
   
Al 3.399576475233681 -0.0027750702488074 3.0098359001269004
Ga 6.760475674766319 -0.0345460397511926 11.5091990998731
Ga -0.0128923575 -0.0096653 1.82984253
In -0.0902465025 -0.0676571 12.80889771
Al 6.824937462266319 0.0137804602488074 2.3599864498731
Al 3.3351146877336806 -0.0511015702488074 12.159048550126899
In 11.07834924273368 1.5182200497511926 4.7578596851269
Al 9.333437652266317 1.4857790352488074 9.657390444873101
Al 4.201842147266319 1.4657783902488075 9.7172430648731
Al 5.9467537377336805 1.4982194047511923 4.8177123051269
Ga 6.786260491366841 -0.0152154401244037 7.849514185063451
In 3.3737916586331598 -0.0221056698755963 6.66952081493655
In -0.05156943 -0.0386612 7.31937012
In 5.131595505 0.020000645 -0.05985262
Al 2.56006962 1.510659775 -0.021966125
Al 7.691665125 1.53066042 -0.081818745
O 5.17406019916684 0.0008078494755963 3.6234323538634494
O 4.98599195083316 -0.0381289594755963 10.89560264613655
O 3.412984528065069 0.0072768425244166 1.1067995225394978
O 6.74706762193493 -0.0445979525244166 13.412235477460506
O 7.631726931734931 1.4510412330755833 3.6023448750605023
O 2.5173272038650696 1.3929038057244163 10.931973680139498
O 7.648464458265072 1.5329572069244164 10.872757874939497
O 12.762864186134934 1.5910946342755834 3.5431290698605022
O -0.0263004093 -0.019717212 3.7328787612
O -0.0768384507 -0.057605188 10.9058614788
O 8.475814928566841 0.0267530702755963 1.09654083626345
O 1.6842372214331596 -0.0640741802755963 13.42249416373655
O 11.13828733336684 1.5978392362755962 1.07369606626345
O 9.27304141366507 1.5262126053244167 13.342190877339496
O 4.141904056633159 1.3861592037244037 13.401406683736548
O 6.007149976334929 1.4577858346755834 1.1329118726605023
O 8.560744215299998 -0.0116325204 8.4631106388
O 1.5993079347 -0.0256885896 6.0559243612
O 6.799668441566318 -0.0051635277511926 5.946477808673101
O 3.3603837084336807 -0.0321575822488074 8.572557191326899
O 11.0184110505 1.4386008635999998 8.442023158799998
O 9.3938340951 1.4453454652 5.9725901564
O 4.2617803395 1.5453975764 6.0330795912
O 5.886357294900001 1.5386529748 8.5025125936
