80   
   
In 7.29079901 2.42621454 7.2740121425
Ga 2.429718635 7.2746688499999985 7.288927047499999
In 7.27708791 7.288520299999998 2.4262163675
Ga 7.284688095 7.28117301 7.2810666675
Ga 2.42211845 7.282016139999999 2.4340767475
In 7.283198825 2.43356183 2.4191618425
Ga 2.43582955 2.41971038 7.281872522499999
Ga 2.4282293650000004 2.42705767 2.4270222225
Ga 7.284359002220001 4.527230244039999 4.8496345473
In 2.4156784422200004 9.383031844039996 0.0096991523
Ga 7.275927732780001 5.19485188596 -0.0042563373
In 4.852886459920001 7.282094190719999 4.5274418871
In 0.01162809992 2.41328427072 9.383098042099999
Ga -0.00104937492 7.2745907992799985 5.1955619079
Ga 4.530120899220001 4.849999412119999 7.28200410084
In 9.38360108922 0.00889239212 2.41223889584
Ga 5.196507660780001 -0.00407449212 7.273880564159999
Ga 2.42855845778 5.18100043596 4.8584543427
In 7.282038647780001 0.33989341596 -0.0113108623
Ga 2.42178935722 4.52807337404 0.0026446273
Al 4.86003100008 2.42613648928 5.1806470029
In -0.00864955992 7.281938089279999 0.3407116079
Ga 0.00402791492 2.42063156072 4.5282477421000005
Ga 5.182796560780001 4.85823126788 2.42608478916
In 0.3415382007800001 -0.01057865212 7.28174094416
Ga 4.52863162922 0.00238823212 2.42009927584
In 2.43466937278 0.32604196596 4.8513998177
In 4.85243081508 2.43348377928 0.3257967029
Al 0.3278271007800001 4.85172710788 2.43394516916
Ga 7.2782480872200015 9.382188714039998 4.8566890723
Ga 4.86048664492 7.27474690072 9.3822921871
Ga 9.38509035922 4.85650357212 7.274143720839999
O 6.02535483759 3.79500303746 6.36533336095
O 3.69171625135 8.64407692962 8.201584581149998
O 8.539674412850001 5.92249438358 1.50947143625
O 6.02554814821 5.90900234934 8.19383284665
O 6.368085741590001 6.022936379939999 3.79492772704
O 8.20408768275 3.6876545885 8.64343635216
O 1.5132522864500002 8.5378072059 5.92317119084
O 8.196867939209998 6.022178525659999 5.90868695496
O 3.79799282664 6.365681126159999 6.02312309164
O 8.647016493800002 8.20117637008 3.68758706904
O 5.9248225224 1.5097378791199998 8.53716359696
O 5.912461807160001 8.193981324640001 6.02234846736
O 3.68756262241 5.91322764254 3.34275552905
O 6.02120120865 1.06415375038 1.50650430885
O 1.17324304715 3.78573629642 8.19861745375
O 3.68736931179 3.79922833066 1.51425604335
O 3.3448317184100005 3.68529430006 5.91316116296
O 1.50882977725 6.0205760915 1.06465253784
O 8.19966517355 1.1704234740999997 3.78491769916
O 1.51604952079 3.68605215434 3.79940193504
O 5.91492463336 3.342549553839999 3.68496579836
O 1.0659009662 1.5070543099199998 6.02050182096
O 3.7880949376 8.19849280088 1.1709252930399998
O 3.8004556528400006 1.5142493553599998 3.68574042264
O 1.15667427759 8.65080463746 1.52539796595
O 8.54519644135 3.80296990962 3.3318193761499995
O 3.69841605285 1.05368446358 6.36512759125
O 1.1690894182099998 1.05488700934 3.3397884016499995
O 1.5268273815900002 1.1541264599399998 8.650583882039998
O 3.33540712275 8.5434561885 3.80350095716
O 6.36673247645 3.6967001859 1.05340598584
O 3.34040920921 1.1680631856599997 1.05464250996
O 8.65147301664 1.5245741061599998 1.1533578866399998
O 3.8057581338 3.3323664500799994 8.543243224039998
O 1.0561419624000004 6.36553947912 3.69722820196
O 1.0560030771600002 3.3398659846399994 1.16830402236
O 8.556243182410002 1.05742604254 8.18269092405
O 1.16772101865 5.905260770379999 6.37626951385
O 6.01450140715 8.65454621642 3.34296129875
O 8.54382804179 8.65334367066 6.36830048835
O 8.18609007841 8.554104220060001 1.05750500796
O 6.37751033725 1.1647744914999998 5.904587932839999
O 3.34618498355 6.0115304941 8.654682904159998
O 6.37250825079 8.54016749434 8.65344638004
O 1.06144444336 8.18365657384 8.55473100336
O 5.9071593262 6.37586422992 1.16484566596
O 8.656775497600004 3.34269120088 6.01086068804
O 8.656914382840004 6.36836469536 8.53978486764
