30   
   
In -0.00529016007 0.00697767447 2.16942298569
In -0.02304237507 0.03039268947 9.44936589069
In -0.03021426993 0.03985235553 12.39046282431
In -0.01246205493 0.01643734053 5.11051991931
Ga 2.708103297709596 1.6431800888188948 7.024249897274069
In 2.6903510827095958 1.6665951038188949 14.304192802274068
In 2.7186836178495954 1.6292247398788948 2.685403925894068
In 2.700931402849596 1.6526397548788947 9.965346830894067
In -0.0698562978495956 3.208290620121105 11.865843174105933
Ga -0.0521040828495956 3.1848756051211047 4.585900269105932
In -0.0592759777095956 3.1943352711811053 7.526997202725933
In -0.0415237627095956 3.170920256181105 0.2470542977259318
O 1.68246060726 0.03360382194 3.64404745674
O 1.8486814635 3.32686175586 3.63399346518
O -0.8734386432600001 1.4653422747 3.63323472558
O 0.8001458564999999 1.51065360414 10.91725363482
O -1.96908700674 3.3010811553 10.90477859442
O 3.77338793274 0.08431813806 10.92907213326
O 4.395854065039596 1.6698062362888948 8.498874368324067
O 1.877743171279596 0.172378840208895 8.497459086764069
O 1.8399548145195956 3.101544689048895 8.48806163716407
O 3.5490437442795955 3.100025988488895 1.2121947364040682
O 3.586832101039596 0.170860139648895 1.2215921860040682
O 1.0309328505195956 1.6025985924088948 1.2107794548440682
O 1.6178944694804047 3.2349167675911046 13.340467645155933
O -0.9002164242795954 1.7374893715111053 13.339052363595933
O -0.9380047810395956 4.666655220351105 13.329654913995933
O 0.7710841487204048 4.665136519791106 6.053788013235932
O 0.8088725054804047 1.7359706709511051 6.063185462835932
O -1.7470267450395955 3.167709123711105 6.052372731675932
