80   
   
Ga 1.65636008527 7.456346119449998 6.51516794059
Ga 6.7601430802700015 7.432002744449998 6.49268417559
In 3.52568853709 1.29147961833 1.82955996765
Al 8.629471532090001 1.26713624333 1.80707620265
Ga 0.98217794889 3.07230423295 1.83727112245
Ga 6.085960943890001 3.04796085795 1.81478735745
Ga 4.19987067347 5.67552150483 6.50745678579
Ga 9.30365366847 5.65117812983 6.48497302079
Al 0.940877345805 5.756898110355 -0.015525677235
Ga 6.044660340805001 5.732554735355 -0.038009442235
In 4.224963519195001 2.983672759645 4.664987292235001
Ga 9.328746514195 2.959329384645 4.642503527235
Ga 1.665437926095 1.384794256105 4.679445283135
Al 6.769220921095 1.360450881105 4.656961518135001
In 3.541539378905 7.374189983894999 9.348864791865
Ga 8.645322373905001 7.349846608894999 9.326381026865
Ga 0.8997755362200002 0.27697649643 9.36516797352
Ga 6.00355853122 0.25263312143 9.34268420852
Ga 4.3071194959 8.481970916829999 4.64438440456
Al 9.4109024909 8.45762754183 4.62190063956
In 1.7369725524 4.64163127793 4.66331698106
Al 6.8407555474000015 4.61728790293 4.64083321606
Ga 3.469922479720001 4.11731613533 9.346235397020001
Al 8.57370547472 4.09297276033 9.32375163202
Al 3.5349796049050006 1.372462197235 7.363008179545002
Ga 8.638762599905004 1.348118822235 7.340524414545
Al 1.654473576655 7.378677947144999 2.669912451495
Al 6.758256571655 7.354334572144999 2.647428686495
Al 4.198647999255 5.737944653485 2.661921635095
Al 9.302430994255 5.713601278485 2.639437870095
Al 0.990805182305 3.0131954908950003 7.370998995945
Ga 6.094588177305001 2.9888521158950003 7.348515230945002
O 4.295527519625001 5.853830839175 8.344979282945001
O 9.399310514625 5.829487464175 8.322495517945
O 0.902646587215 2.901212939645 3.676257221615
O 6.0064295822150005 2.876869564645 3.653773456615
O 3.4478167614150004 1.470616627425 3.667846912815
O 8.551599756414998 1.4462732524250002 3.645363147815
O 1.7503573454250003 7.284427151394999 8.353389591744998
O 6.854140340425 7.260083776394999 8.330905826745001
O 2.7057342999850005 0.077603105895 5.887334395065
O 7.809517294985 0.053259730895 5.864850630065
O 2.470719766535 8.667718413564998 1.181870122615
O 7.574502761535002 8.643375038564999 1.159386357615
O 5.002613252735 4.435295682144999 1.179053045815
O 10.106396247735 4.410952307144999 1.156569280815
O 0.173840813785 4.310025837315 5.890151471865
O 5.277623808785 4.285682462315 5.867667706865
O 0.115846194715 7.242833019264999 1.120048398235
O 5.219629189715 7.218489644264999 1.097564633235
O 5.059949688765 1.5021938862749995 5.799094544085
O 10.163732683765 1.4778505112749998 5.776610779085
O 2.514447597365 2.862744538015 5.807644683685
O 7.618230592365002 2.838401163015 5.785160918685
O 2.6613482861150004 5.882282367525 1.111498258635
O 7.765131281115 5.857938992525 1.089014493635
O 5.02176597761 7.299101782159998 5.94725625815
O 10.125548972610002 7.274758407159998 5.924772493150001
O 0.15542854483 1.4465511779600002 1.2907675318100005
O 5.259211539830001 1.42220780296 1.2682837668100002
O 2.7143732828300005 2.92284977566 1.2765542448100002
O 7.8181562778300036 2.89850640066 1.2540704798100002
O 2.46282123961 5.82280318446 5.96146954515
O 7.56660423461 5.79845980946 5.93898578015
O 1.885143058735 1.495628305245 8.110994722695
O 6.988926053735001 1.471284930245 8.088510957695
O 3.3108096803450007 7.258421151594998 3.403783965025
O 8.414592675345 7.234077776594998 3.381300200025
O 0.752279838845 5.869679629495 3.417822463525
O 5.856062833845 5.845336254495 3.3953386985250003
O 4.443672900235001 2.884369827345 8.096956224195
O 9.547455895235002 2.860026452345 8.074472459195
O 4.30382686947 0.00497667906 8.42214970761
O 9.407609864470002 -0.01936669594 8.399665942610001
O 0.8949231475300001 8.750324886939998 3.73039067539
O 5.99870614253 8.72598151194 3.70790691039
O 3.4261527993300005 4.37781083456 3.72785326019
O 8.52993579433 4.35346745956 3.70536949519
O 1.7725972176700002 4.37749073144 8.42468712281
O 6.876380212670001 4.35314735644 8.40220335781
