80   
   
Ga 10.960656241425 9.641515e-06 1.203162472055
Ga 10.960649866425 3.1894768515150003 1.203151652055
Ga 23.371937616424997 2.1876515e-05 1.159647167055
Ga 23.371931241424996 3.189489086515 1.159636347055
Ga -0.1161969564250002 -4.626515e-06 4.815360682945
Ga -0.1162033314250001 3.189462583485 4.815349862945
Ga 12.295084418575 7.608485e-06 4.7718453779450005
Ga 12.295078043575002 3.189474818485 4.7718345579450006
Ga 4.755012366425 1.594737129015 1.224914714555
Ga 4.755005991425 4.784204339015 1.224903894555
Ga 17.166293741424997 1.594749364015 1.181399409555
Ga 17.166287366425 4.784216574015001 1.181388589555
Ga 6.089440543574999 1.5947350959850002 4.793597620445
Ga 6.089434168574999 4.7842023059850005 4.793586800445
Ga 18.500721918575003 1.594747330985 4.750082315445001
Ga 18.500715543575 4.784214540985 4.750071495445001
Ga 9.363044495134998 1.5947389417150002 4.1219566020550005
In 9.363038120134998 4.784206151715 4.1219457820550005
In 21.774325870135 1.5947511767150002 4.078441297055001
In 21.774319495135 4.784218386715 4.078430477055001
Ga 1.481408414865 1.594733283285 1.896555732945
In 1.481402039865 4.784200493285 1.896544912945
In 13.892689789865 1.594745518285 1.853040427945
In 13.892683414865 4.784212728285 1.853029607945
In 3.157406995135 -7.80785e-07 4.143719664555
Ga 3.157400620135 3.1894664292150003 4.143708844555
In 15.568688370135002 1.1454215e-05 4.100204359555001
In 15.568681995134998 3.189478664215 4.100193539555001
In 7.687052289865 5.795785e-06 1.874803490445
Ga 7.687045914865 3.189473005785 1.874792670445
In 20.098333664865 1.8030785e-05 1.831288185445
In 20.098327289864997 3.189485240785 1.831277365445
O 9.579428443795 6.963205e-06 2.613123649785
O 9.579422068795001 3.1894741732050003 2.613112829785
O 21.990709818795 1.9198205e-05 2.569608344785
O 21.990703443794995 3.189486408205 2.5695975247850003
O 1.2650308412049998 -1.948205e-06 3.405399505215
O 1.265024466205 3.189465261795 3.405388685215
O 13.676312216205002 1.0286795e-05 3.361884200215
O 13.676305841205 3.189477496795 3.361873380215
O 3.373784568795 1.594734450705 2.634875892285
O 3.373778193795 4.784201660705 2.634865072285
O 15.785065943795 1.594746685705 2.591360587285
O 15.785059568795 4.784213895705 2.591349767285
O 7.470668341205 1.5947377742950002 3.383636442715
O 7.470661966205 4.784204984295 3.383625622715
O 19.881949716205 1.5947500092950002 3.340121137715
O 19.881943341204998 4.784217219295001 3.340110317715
O 8.968948288024999 3.790425e-06 5.358878949725
O 8.968941913024999 3.189471000425 5.358868129725
O 21.380229663025 1.6025425e-05 5.315363644725
O 21.380223288024997 3.189483235425 5.315352824725
O 1.875510996975 1.224575e-06 0.659644205275
O 1.875504621975 3.189468434575 0.659633385275
O 14.286792371975 1.3459575e-05 0.616128900275
O 14.286785996975 3.189480669575 0.616118080275
O 2.763304413025 1.594731277925 5.3806311922250005
O 2.7632980380250003 4.784198487925001 5.380620372225001
O 15.174585788024999 1.594743512925 5.337115887225
O 15.174579413024999 4.784210722925001 5.337105067225
O 8.081148496975 1.594740947075 0.637881142775
O 8.081142121975 4.784208157075001 0.637870322775
O 20.492429871975002 1.594753182075 0.5943658377750001
O 20.492423496975 4.784220392075 0.594355017775
O -1.11450687487 1.59472828948 4.50391510456
O -1.11451324987 4.78419549948 4.50390428456
O 11.29677450013 1.59474052448 4.46039979956
O 11.29676812513 4.784207734480001 4.46038897956
O 11.958959784869998 1.59474393552 1.5145972304400002
O 11.958953409869999 4.7842111455200005 1.51458641044
O 24.37024115987 1.59475617052 1.47108192544
O 24.37023478487 4.78422338052 1.47107110544
O 5.09113700013 8.0198e-07 4.48216286206
O 5.09113062513 3.18946801198 4.48215204206
O 17.502418375129995 1.303698e-05 4.43864755706
O 17.502412000129997 3.18948024698 4.43863673706
O 5.75332228487 4.21302e-06 1.53636029294
O 5.75331590987 3.18947142302 1.53634947294
O 18.16460365987 1.644802e-05 1.49284498794
O 18.16459728487 3.1894836580200003 1.49283416794
