20   
   
Al 10.62843938013 5.6129e-07 1.1629188529
Ga -0.0132788901300001 7.6871e-07 4.3959254871
Al 4.625356495129999 1.48005125629 1.1463537279
Al 5.98979089487 1.48005187371 4.4125361621
Al 9.14294720999 1.48005187593 3.81853224124
Al 1.4722001800100002 1.48005125407 1.74035764876
Al 3.1398774249900003 7.7093e-07 3.80192156624
Al 7.475283065010002 5.5907e-07 1.75692277376
O 8.787154439250001 1.16115e-06 4.9455467936
O 1.82800605075 1.6885e-07 0.6132975464
O 2.78407155425 1.48005185615 4.9289816686
O 7.831075835750002 1.4800512738499998 0.6299082214
O 9.32122467543 7.4111e-07 2.44215353858
O 1.29393581457 5.8889e-07 3.1166908014199994
O 3.3181417904300003 1.48005143611 2.42558841358
O 7.29700559957 1.48005169389 3.13330147642
O -0.98548912906 1.4800515851999998 4.10572720342
O 11.60063651906 1.4800515448 1.45316268658
O 5.01759375594 8.902e-07 4.12229232842
O 5.597566734060001 4.398e-07 1.43655201158
