80   
   
Ga 7.1527552775 2.381970675 7.131715585
Al 2.3828354975000003 7.13523446 7.148785879999999
Al 7.1351968375 7.15124012 2.37745912
In 7.1446232625 7.143619395 7.139125965
In 2.3734090725000003 7.142855185 2.387119035
Ga 7.1433288525 2.3895914 2.37004874
Al 2.3909675125 2.37358574 7.1413755
In 2.3815410875 2.381206465 2.379708655
Ga 7.14452903452 4.442813284540001 4.754083446659999
Ga 2.36518282952 9.20369779454 0.00948689666
Ga 7.13399665548 5.0980182354600005 -0.00657558666
Ga 4.758375170600001 7.1437554993 4.43932915454
In 0.0141458456 2.3661011193 9.20324553454
Al -0.0021306006 7.1343341457000005 5.09657576046
Al 4.44399381948 4.7580323919200005 7.14090760672
Al 9.20448717448 0.01238933192 2.36217046672
Al 5.09972897052 -0.00247597692 7.13218347828
Al 2.38163531548 5.082012575460001 4.76475117334
In 7.14212867048 0.33636951546 -0.01398596666
Al 2.3733148445200003 4.442049074540001 0.00207651666
Ga 4.7677891794 2.3810703607000003 5.07950546546
In -0.0115570256 7.1419548707 0.33490891546
Ga 0.0047194206 2.3737218443 4.44157868954
In 5.08217053052 4.76679346808 2.37792701328
In 0.3379412055200001 -0.01086091192 7.14184339328
Ga 4.44269940948 0.00400439692 2.37183038172
Al 2.38976733048 0.3203638554600001 4.75734079334
Al 4.7583627544 2.3886910857 0.31783862046
Al 0.3203827655200001 4.75840853308 2.38758692828
In 7.13639701952 9.204462004540002 4.76149382666
In 4.767801595600001 7.1361347743 9.200995999540002
Ga 9.20578158448 4.76641732692 7.13124769172
O 5.91062506247 3.7240082272400006 6.2411235232
O 3.620379256070001 8.478766785839998 8.04355739612
O 8.37378271673 5.81206796036 1.47766444808
O 5.91062383973 5.79722167656 8.034741182599998
O 6.24475331343 5.90948604057 3.72013853551
O 8.048515305270001 3.61942666553 8.474616270069998
O 1.4828468219300002 8.373835803870001 5.80973859253
O 8.03929543437 5.9093161400300005 5.792593151889999
O 3.72473759555 6.24439044081 5.906635252829999
O 8.47894303891 8.04681324253 3.61416155511
O 5.81391081709 1.4824347754699998 8.371079909289998
O 5.79781942345 8.03842619119 5.90520983277
O 3.61553928753 5.80081763276 3.2777110968
O 5.90578509393 1.0460590741600002 1.4752772238799998
O 1.15238163327 3.7127578996400006 8.04117017192
O 3.61554051027 3.72760418344 1.4840934374
O 3.28141103657 3.61533981943 5.79869608449
O 1.47764904473 5.90539919447 1.04421834993
O 8.04331752807 1.1509900561300002 3.70909602747
O 1.48686891563 3.61550971997 3.72624146811
O 5.80142675445 3.28043541919 3.61219936717
O 1.0472213110900002 1.47801261747 5.90467306489
O 3.71225353291 8.042391084529998 1.14775471071
O 3.7283449265500006 1.48639966881 3.61362478723
O 1.13127885747 8.484892737240001 1.4965269732
O 8.380872611069998 3.733123725840001 3.26482025612
O 3.629553391730001 1.0344135803600003 6.24158082808
O 1.14754166473 1.03480874656 3.2753238726
O 1.50052398843 1.13183166057 8.48405491551
O 3.26916910027 8.38031117553 3.73001972007
O 6.24334017693 3.62819274387 1.03100145253
O 3.27621325937 1.14690321003 1.03317584189
O 8.485230950550001 1.49874738081 1.12789811283
O 3.7347137139100006 3.26915886253 8.378077935109998
O 1.03456461209 6.24331928547 3.62648335929
O 1.03473724845 3.27601326119 1.14579252277
O 8.394885492529998 1.03993312276 8.0223076468
O 1.14529173893 5.79170213416 6.25401436388
O 5.89661095827 8.490412279640001 3.2772537919199998
O 8.378622685269999 8.49001711344 6.2435107474
O 8.02564036157 8.392994199430001 1.03477970449
O 6.256995249730001 1.14451468447 5.788814899929999
O 3.28282417307 5.89663311613 8.48783316747
O 6.2499510906300015 8.377922649969998 8.48565877811
O 1.04093339945 8.026078479190002 8.39093650717
O 5.79145063609 6.2556669974700005 1.14075668489
O 8.491599737910002 3.28150657453 5.89235126071
O 8.491427101550002 6.248812598810001 8.37304209723
