40   
   
In -1.19840154 -0.0738426675 12.7144189725
Al -0.17120022 -0.0105489525 1.8163455675
Al 2.2038635662493617 -0.1319241546195813 11.249092919839192
In 6.290929623750638 -0.1478098353804187 2.518384880160808
Ga 5.434928523750638 -0.2005545978804187 11.600112717660808
Al 3.0598646662493616 -0.0791793921195813 2.167365082339192
Ga 4.932197475 -0.097671185 -0.38164337
Al 3.684810128750637 1.4198441671195812 4.537294972660807
Al 4.872341986249362 1.3591565678804187 9.253668507339192
In 9.80453946124936 1.261485382880419 8.87202513733919
Al 8.617007603750638 1.3221729821195811 4.155651602660807
In 1.187531928750638 -0.0606876028804187 4.716373817660808
In 7.30726126124936 -0.2190463871195813 9.05110398233919
Al 2.546263992553344 -0.1108262504634975 7.616401930146837
Al 5.948529197446655 -0.1689077395365025 6.1510758698531625
Al -0.68480088 -0.04219581 7.26538227
O 9.493984894150637 1.3007703760195812 12.526859826360807
O 8.930056527849361 1.4052373779804188 0.5017563408391922
O 3.9953646958493616 1.3805591739804188 0.8824602836391923
O 4.559293062150638 1.2760921720195817 12.907563769160808
O -1.0203533111999998 -0.0628717569 10.8254195823
O -0.3492484488 -0.0215198631 3.7053449577
O 6.896815566150638 -0.2389826647804187 12.713101825160807
O 1.597977623849362 -0.0407513252195813 1.0543759748391923
O 2.025815323753344 -0.1428950660634975 13.138092455346836
O 6.468977866246656 -0.1368389239365025 0.6293853446531625
O 6.370428567046656 1.2591839690634976 10.315207773653162
O 2.184229190953344 1.3974673769365025 3.4748162791468373
O 7.118921022953344 1.4221455809365025 3.094112336346837
O 11.305120399046656 1.2838621730634974 9.93450383085316
O 3.973041495046656 -0.1621265301365025 10.48712346485316
O 4.521751694953344 -0.1176074598634975 3.2803543351468374
O 3.3742554903999995 1.4591291639 8.1921293787
O 5.1853909816 1.4422209601 5.599773528499999
O 10.115094099599999 1.2222003861 5.2171907313
O 8.3039586084 1.2391085899 7.8095465814999985
O 2.7243122350493616 -0.0998553390195813 5.727402394639192
O 5.770480954950638 -0.1798786509804187 8.040075405360808
O 0.7770861624000001 -0.0806238769 8.3783713775
O 7.717707027599999 -0.1991101131 5.3891064225
