80   
   
Al 7.0939810425 2.363353165 7.072336977499999
Al 2.3627030375 7.076722855000002 7.089581632499999
Al 7.0754693025 7.0930875150000015 2.3572392375
Ga 7.0852085925 7.085641515000002 7.0796390775
Al 2.3529637475 7.0841688550000015 2.3671817925
In 7.0842417525 2.370799165 2.3499371375
Al 2.3714754875 2.354434505 7.0822795325
Al 2.3617361974999995 2.361880505 2.3598796925
Al 7.0853216991 4.407104732200001 4.7142915647
In 2.3443044041 9.1279204222 0.0091363797
Al 7.074389355899999 5.056781947800001 -0.0071151897
Al 4.71842389828 7.085411513 4.40228724588
Al 0.01443008328 2.346758503 9.12732754088
Al -0.00275711328 7.075480197000001 5.05447617912
In 4.40721166226 4.7194315411200005 7.08163539874
In 9.12875037726 0.01350785112 2.34199090374
In 5.05824486774 -0.00164387112 7.072981111259999
In 2.3616230909 5.0404172878 4.7252272053
Al 7.0831618059 0.3344935978 -0.0144172897
Al 2.3530768541 4.4056320722 0.0018342797
Al 4.72852089172 2.362110507 5.03723152412
Ga -0.01249640328 7.082926197000001 0.33207633912
Al 0.00469079328 2.354204503 4.40492770088
Ga 5.03973312774 4.72809047888 2.35788337126
In 0.33573931274 -0.01056253112 7.082923666259999
In 4.406244822260001 0.00458919112 2.35193345874
In 2.3703955409 0.3181289378 4.7179251053
Al 4.71878160172 2.369556507 0.31483168412
Ga 0.31722757274 4.7191718188800005 2.36782592626
Al 7.076549249099999 9.1293930822 4.7215936647
In 4.72816318828 7.0779655130000005 9.12468708588
Al 9.12971721726 4.7283502011200005 7.071692843739999
O 5.86182478078 3.6941194761 6.18917006408
O 3.58991163742 8.409327173299998 7.976866930319998
O 8.303963591179999 5.7651208999 1.4647838110799998
O 5.86166196562 5.750237500700001 7.9679761195199985
O 6.19266557494 5.86151606392 3.68892664672
O 7.98227772962 3.5907250720800006 8.404083078039998
O 1.46984467638 8.304940889920001 5.76163262396
O 7.9725739940599984 5.86162302408 5.74415457628
O 3.69356660921 6.193383667320001 5.857581078789999
O 8.408098863809998 7.98145682692 3.58363219019
O 5.76641591199 1.4711119330800002 8.301591941609999
O 5.74928058999 7.97285262268 5.855991714409999
O 3.58512000922 5.7534025439 3.25034870592
O 5.857033152580001 1.0381948467000002 1.46265183968
O 1.1429811988199998 3.6824011201 7.974734958919998
O 3.58528282438 3.6972845193 1.4715426504799998
O 3.2542792150599995 3.5860059560800006 5.75059212328
O 1.4646670603799998 5.85679694792 1.0354356919599998
O 7.97710011362 1.14258113008 3.67788614604
O 1.47437079594 3.58589899592 3.69536419372
O 5.75337818079 3.25413835268 3.58193769121
O 1.03884592619 1.46606519308 5.855886579809999
O 3.68052887801 7.97641008692 1.13792682839
O 3.69766420001 1.47466939732 3.58352705559
O 1.12080748578 8.414935166099998 1.4840148790799998
O 8.311450352419998 3.7034034833 3.23722243532
O 3.59996977618 1.0264678899000002 6.18982410608
O 1.1381895706199998 1.0264764907 3.2482167345199997
O 1.48867175994 1.12286305392 8.41396694172
O 3.24126043462 8.31154076208 3.69892789304
O 6.19138339138 3.5990171999200005 1.02198812896
O 3.2491015990599994 1.13786201408 1.02439519128
O 8.41510532421 1.48745997732 1.11793658379
O 3.70410504881 3.24280381692 8.30867248519
O 1.0253986169899998 6.191927623080001 3.59643675661
O 1.02580819499 3.24909161268 1.13623232941
O 8.326137304219998 1.0325868539000005 7.955503890919998
O 1.1354944375799998 5.744118536700001 6.20229633468
O 5.84697501382 8.421054130100002 3.2496946639199997
O 8.30875521938 8.4210455293 6.19130203548
O 7.958273030059998 8.324658966080001 1.0255518282799998
O 6.20568435538 1.13598125792 5.740590876959999
O 3.2555613986199994 5.8485048200800005 8.417530641039999
O 6.19784319094 8.309660005920001 8.415123578719998
O 1.03183946579 7.96006204268 8.321582186209998
O 5.74283974119 6.2047182030800005 1.1308462848099998
O 8.421546173009999 3.2555943969200003 5.843082013389999
O 8.42113659501 6.198430407320001 8.30328644059
