40   
   
In -1.1338540675 -0.13782502125 13.66291360875
Ga -0.1619791525 -0.01968928875 1.95184480125
In 2.603054313182998 -0.1509948041036115 12.118111356254
In 6.987879386817001 -0.0854074358963885 2.765930203746
In 6.177983624317001 -0.1838538796463885 12.525154209996
In 3.412950075682998 -0.0525483603536115 2.358887350004
In 5.44338346 -0.039443965 -0.365358425
In 4.081871399317 1.4890251303536115 4.772232459995999
Ga 5.464388090682998 1.4233723746463884 9.855365585004
Ga 10.907771550682995 1.3839284096463884 9.490007160004
In 9.525254859317002 1.4495811653536117 4.406874034996
In 1.3825167743170017 -0.0656527596463885 5.083133429996
In 8.208416925682995 -0.1707494803536115 9.800908130004
Ga 2.9270126052246654 -0.1116162281787546 8.214421909901585
Ga 6.663921094775334 -0.1247860118212454 6.669619650098416
In -0.64791661 -0.078757155 7.807379205
O 10.617049317817001 1.4070003408036116 13.412156970046
O 9.814190123783002 1.5524612239963886 0.4744664843540001
O 4.372593632182998 1.4659531991963886 0.8500826499540001
O 5.175452826217001 1.3204923160036115 13.787773135646
O -0.9653957489 -0.11734816095 11.63299501545
O -0.3304374711 -0.04016614905 3.98176339455
O 7.809720507817001 -0.2098646647963885 13.735493978846
O 1.7812131921829983 -0.0265375752036115 1.1485475811540002
O 2.4345959816246654 -0.1714716659787546 14.148030105701585
O 7.156337718375333 -0.0649305740212454 0.736011454298416
O 7.137627193775332 1.334647681478755 11.016349353798416
O 2.4104192646246654 1.4517978337212454 3.621506431801584
O 7.852015756224666 1.5383058585212452 3.245890266201584
O 12.57922368537533 1.4211557062787548 10.640733188198416
O 4.546246753775333 -0.1578430929212454 11.314814284998416
O 5.044686946224665 -0.0785591470787546 3.569227275001584
O 3.7911490835 1.51209706545 8.69438196505
O 5.7533234381 1.52625242935 5.92295833935
O 11.1984938665 1.36085647455 5.56785765495
O 9.2363195119 1.34670111065 8.339281280649999
O 3.095470936782998 -0.0911393663036115 6.184503160454001
O 6.4954627632170014 -0.1452628736963885 8.699538399546
O 0.9838202735 -0.10476794015 9.01771897385
O 8.6071134265 -0.13163429985 5.86632258615
