60   
   
Ga -0.00041347185 0.0027510589 1.96365563425
Ga 5.01801056315 0.0291654639 1.96437895925
Ga -0.00183923685 0.0122374689 8.73488195925
Ga 5.01658479815 0.0386518739 8.73560528425
Ga -0.00243805815 0.0162217611 11.57879701575
Ga 5.01598597685 0.0426361661 11.57952034075
Ga -0.00101229315 0.0067353511 4.80757069075
Ga 5.01741174185 0.0331497561 4.80829401575
Ga 2.5002964107709498 1.47083626414666 6.47614314175798
Ga 7.51872044577095 1.49725066914666 6.47686646675798
Ga 2.4988706457709497 1.48032267414666 13.247369466757979
Ga 7.51729468077095 1.50673707914666 13.248092791757982
Ga 2.5011233544709497 1.46533414634666 2.54883187325798
Ga 7.519547389470951 1.4917485513466602 2.54955519825798
Ga 2.4996975894709497 1.47482055634666 9.320058198257978
Ga 7.51812162447095 1.5012349613466602 9.320781523257981
Al -0.0174102394709502 2.9125114686533404 10.987920861742019
Ga 5.001013795529049 2.938925873653341 10.98864418674202
Al -0.0159844744709502 2.9030250586533404 4.21669453674202
Ga 5.002439560529049 2.9294394636533405 4.21741786174202
Al -0.0165832957709502 2.907009350853341 7.060609593242019
Ga 5.001840739229049 2.9334237558533407 7.06133291824202
Al -0.0151575307709502 2.8975229408533405 0.28938326824202
Ga 5.003266504229049 2.9239373458533406 0.29010659324202
O 1.5198696001049998 0.012746769715 3.385832329975
O 6.538293635104999 0.039161174715 3.386555654975
O 1.7324226750649998 3.042877543115 3.381640321745
O 6.750846710065001 3.069291948115 3.382363646745
O 9.26898179233 1.37030690717 3.38511357078
O 4.250557757329999 1.34389250217 3.38439024578
O 0.7512904399349998 1.334968071885 10.155112413255
O 5.769714474934999 1.361382476885 10.155835738255
O -1.76684464233 3.03395311283 10.15236248922
O 3.25157939267 3.06036751783 10.15308581422
O 3.495702904895 0.032640455285 10.157343645025
O 8.514126939895 0.059054860285 10.158066970024999
O 4.02057948272595 1.48083197496166 7.898319837482979
O 9.039003517725948 1.50724637996166 7.899043162482979
O 1.74656791268595 0.15208995336166 7.899827744252979
O 6.7649919476859495 0.17850435836166 7.9005510692529795
O 1.7328436049509497 2.7855633024166604 7.896154428287979
O 6.7512676399509495 2.81197770741666 7.8968777532879795
O 3.25485185255595 2.78408045713166 1.12514727076298
O 8.273275887555949 2.81049486213166 1.12587059576298
O 3.2685761602909498 0.15060710807666 1.12882058672798
O 8.28700019529095 0.17702151307666 1.12954391172798
O 0.9808402825159498 1.45533843553166 1.12665517753298
O 5.99926431751595 1.48175284053166 1.12737850253298
O 1.5028728324840497 2.9225071794683406 12.41009755746702
O 6.5212968674840495 2.9489215844683407 12.410820882467021
O -0.7711387375559502 1.59376515786834 12.41160546423702
O 4.24728529744405 1.6201795628683402 12.412328789237021
O -0.7848630452909501 4.2272385069233405 12.40793214827202
O 4.23356098970905 4.25365291192334 12.408655473272018
O 0.7371452023140496 4.22575566163834 5.63692499074702
O 5.75556923731405 4.25217006663834 5.63764831574702
O 0.7508695100490498 1.59228231258334 5.64059830671202
O 5.76929354504905 1.61869671758334 5.64132163171202
O -1.53686636772595 2.8970136400383404 5.63843289751702
O 3.48155766727405 2.9234280450383405 5.63915622251702
