40   
   
In 7.386556854386259 -0.199776425889163 13.844219802138701
In 5.18040599 -0.09502351 -0.336385665
In 9.311183796863741 1.465290035889163 1.8957087328612987
Ga 4.13077780686374 1.560313545889163 2.232094397861299
In 4.69227216875 -0.11122504 5.30029971
In 1.347142388113739 -0.044275694110837 4.271960117861299
Ga -0.650845095 -0.02160204 7.5155805
Al 8.20011322313626 -0.172773875889163 4.449744177138701
In 1.97007905 1.57758669 7.354609905
In 7.15048504 1.48256318 7.01822424
In 7.711979401886259 -0.188975405889163 10.0864295521387
In 4.36684962125 -0.12202606 9.05808996
Al 2.36886213813626 -0.099352405889163 12.301710342138701
In 0.859008566863739 -0.060477224110837 9.908645492861298
In 4.989786283136261 1.4998363241108372 12.140739747138701
In 10.170192273136257 1.4048128141108371 11.804354082138701
O 3.41203240705 -0.0682883336 1.0489064328000002
O 0.540094470313739 -0.071062223710837 13.5912799378613
O 5.92811958625 1.4669328472 0.8943746616000001
O 11.11098326825 1.503645376 0.5585667756000001
O 8.51902731968626 -0.162188876289163 0.7671097321387012
O 5.64708938295 -0.1649627664 13.309483237200002
O 8.37285049375 1.4981935128 13.142073818400002
O 3.18998681175 1.461480984 13.4778817044
O 6.43173964018626 -0.146038699489163 5.835036274938702
O 4.861491893449999 -0.1056085096 3.3462487800000003
O 8.94782681938626 1.389182481310837 5.6805045037387005
O 3.7698785213862607 1.6159420301108371 6.017467947738702
O 1.177922663413739 -0.049892224510837 6.2260110478613
O 9.96848680608626 -0.199509052289163 3.0644520793387007
O 12.69424791688626 1.4636472269108367 2.8970426605387014
O 7.511384234886259 1.4269346981108368 3.232850546538701
O -0.9093650160862606 -0.033742047710837 11.293937590661299
O 7.881199126586259 -0.183358875489163 8.1323786221387
O 1.6067221631137394 1.501479133089163 11.139405819461299
O 6.789585845113739 1.538191661889163 10.8035979334613
O 4.19762989655 -0.1276425904 11.01214089
O 2.627382149813739 -0.087212400510837 8.5233533950613
O 5.35314326061374 1.5759438786891633 8.355943976261301
O 10.531091558613738 1.349184329889163 8.018980532261299
