40   
   
In -0.0200250720218568 3.5021522091116206 14.178510425093105
Ga 1.5100691432179665 2.6051108100862383 2.550954267456468
Al 3.006192168217966 -0.0101281249137612 2.5623377124564675
Al -1.5018913767820337 2.6195508750862384 2.4447733174564674
In 3.018532040053891 1.7242391858021398 0.1339856374504293
Ga -0.0100946155320337 0.0075458950862388 4.298274297456468
In -1.5068565599461097 4.366854005802139 7.384891382450429
Al -0.0107335349461096 1.75161507080214 7.39627482745043
Al 1.505103960053891 4.35241394080214 7.491072332450429
Al 0.0016062467281432 3.485982434111621 4.967922750093103
Al -0.0113725445218568 3.4956842991116206 10.494275355093103
In 2.9969007213038914 1.7404089608021398 9.34457331245043
Al 4.492384736728144 0.8692392541116211 12.453957285093104
Al 2.996261711728144 3.4844781891116208 12.442573840093106
Ga 1.4804242167281434 0.883679319111621 12.347776335093103
In -0.0230734067820337 0.0172477600862388 9.824626902456467
O 4.458176915103891 0.88494099520214 1.4242461676504294
O 3.021898811103891 3.39557037280214 1.4133180604504294
O 1.5666948159038907 0.89880345760214 1.3223124556504295
O -0.0315528837320337 0.0235863118862388 13.435177271056467
O 0.0100857236781432 3.479643882311621 1.3573723814931031
O 1.5442770550038905 2.58940901640214 13.58066538725043
O 2.9805551590038903 0.07877963880214 13.59159349445043
O 4.4357591542038906 2.57554655400214 13.682599099250428
O 1.441251121778144 2.6466842435116207 6.258183280293103
O 0.0049730177781436 5.157313621111621 6.247255173093104
O -1.4502309774218565 2.660546705911621 6.156249568293103
O 3.010052563103891 1.7305777376021398 3.7445360060504296
O -0.0145939298320337 0.0109092082862388 6.214076533856468
O -1.4380386283218567 4.3252806247116204 3.677662219893103
O -0.0017605243218565 1.8146512471116207 3.6885903270931033
O 1.453443470878144 4.311418162311621 3.779595931893103
O -1.5756745817320337 4.408427439486239 11.092120542656467
O -0.0197066357320335 1.688578947086239 11.103959325456467
O 1.556764359067967 4.3934097718862395 11.202548730656467
O -0.0068732302218568 3.4923209859116207 8.578473118693104
O 2.9924014070038907 1.7437722740021395 11.260375548850428
O 4.561202758167966 0.8276658206862388 8.746728272256469
O 3.0052348121679664 3.5475143130862388 8.734889489456469
O 1.4287638173679666 0.8426834882862388 8.636300084256467
