40   
   
Ga 0.0251379141630751 3.352009446980426 13.695413516181894
Al 1.4685627683858131 2.5189029182779774 2.382499245955315
Al 2.919426723385813 -0.0113126817220224 2.377758570955315
Ga -1.4482399416141865 2.5274478132779774 2.385839800955315
Ga 2.921827672451111 1.6754171897415966 -0.0012936233872082
Al 0.0045920233858136 -0.0048436267220224 4.166923434705315
Ga -1.437966952548889 4.205874324741597 7.1500848416127925
Al 0.0128970024511111 1.6756587247415966 7.145344166612793
Ga 1.4788357574511113 4.197329429741597 7.146744286612792
Ga 0.0152978641630751 3.3623886469804254 4.766291972431893
Ga 0.0212018941630751 3.3561611269804255 10.123764898681893
Ga 2.9316677224511114 1.6650379897415966 8.927827920362793
Ga 4.390836569163073 0.8153247919804257 11.901507977431894
Al 2.939972614163074 3.3455403919804256 11.906248652431891
Ga 1.4740338591630753 0.8238696869804257 11.904848532431892
Al 0.0104960533858136 -0.0110711467220224 9.524396360955315
O 4.320819252051111 0.8616022601415967 1.210480912962792
O 2.9279898552511106 3.2906092361415973 1.215031960962792
O 1.520688650451111 0.8698053593415968 1.213687845762792
O 0.0143533529858136 -0.0151397931220224 13.024612006105315
O 0.0114405645630751 3.3664572933804258 1.2660763272818931
O 1.538580172851111 2.4726253993415965 13.073526310262793
O 2.931409569651111 0.0436184233415967 13.068975262262793
O 4.33871077445111 2.464422300141597 13.070319377462791
O 1.4142894437630753 2.5485737173804255 5.978066508781894
O 0.021460046963075 4.977580693380426 5.982617556781894
O -1.3858411578369247 2.5567768165804257 5.981273441581894
O 2.925684972051111 1.6713485433415969 3.498922021762792
O 0.0066387537858136 -0.0070025003220224 6.024180715805316
O -1.3836937154369249 4.176203576580425 3.5545174360818934
O 0.0091356813630753 1.7471966005804258 3.549966388081893
O 1.4164368861630752 4.168000477380426 3.551310503281893
O -1.4922402770141865 4.235545123677976 10.745652247305316
O 0.0166582361858135 1.6041208996779777 10.740721945305316
O 1.541234541385814 4.2266584328779775 10.742178070105314
O 0.0191551637630751 3.3583200005804255 8.266507617581894
O 2.933714452851111 1.6628791161415966 10.785085201462794
O 4.445109893785813 0.7856539928779777 8.305940714605315
O 2.9362113805858128 3.4170782168779774 8.310871016605315
O 1.4116350753858131 0.7945406836779776 8.309414891805314
