40   
   
Al 8.064975750553295 -0.0652693505954319 13.563345237451955
Al 4.957977965 -0.012509245 -0.052295365
Ga 9.058849830696706 1.4362262130954315 2.2828947787980454
Ga 4.100871865696708 1.448735458095432 2.3351901437980453
Ga 4.88037416375 -0.0298912225 5.28920628875
Al 1.5923008419467082 -0.0176890644045681 4.137069545048046
Ga -0.103471735 -0.02317597 7.122002205
Ga 8.194315419303292 -0.0362993880954319 4.6608424812019535
Ga 2.379231355 1.43745456 7.100623355000001
Al 7.33720932 1.424945315 7.048327990000001
Al 8.116711618053293 -0.0536813655954319 10.002344134951954
Ga 4.82863829625 -0.0414792075 8.85020739125
Ga 3.132865719303292 -0.0469661130954319 11.835140051201952
Ga 1.5146970406967082 -0.0350710419045681 9.478571198798049
Ga 5.6155688093032925 1.413664416904568 11.813761201201954
Al 10.573546774303292 1.401155171904568 11.761465836201955
O 3.3538348212500004 -0.0124462015 1.17517952665
O 1.4639958905467083 -0.0464272672045681 12.968352279248046
O 5.73722978765 1.3897591073 1.15465583065
O 10.69550488125 1.4946006745000002 1.10274197225
O 8.245016569453293 -0.0249431627954319 1.1710614007519544
O 6.355177638750001 -0.0589242285 12.96423415335
O 8.937188852350001 1.4601315227 12.94200014935
O 3.978913758749999 1.3552899555 12.99391400775
O 6.590172275553292 -0.0362363445954319 5.888317372851954
O 4.90727681485 -0.0238654703 3.4374857154500003
O 8.973567241953292 1.365968964204568 5.867793676851955
O 4.015886405553292 1.4958290214045682 5.920470548451954
O 1.5653981908467085 -0.0237148166045681 5.988790118348046
O 9.798458563053293 -0.0363624315954319 3.4333675895519544
O 12.380469776653289 1.4826933196045682 3.4111335855519545
O 7.422194683053293 1.377851752404568 3.4630474439519543
O -0.0894461030532918 -0.0350079984045681 10.706046090448046
O 8.143614269153295 -0.0476556133954319 8.150623561651953
O 2.293948863346708 1.3671973103954318 10.685522394448046
O 7.252223956946708 1.472038877595432 10.633608536048046
O 4.801735645150001 -0.0475049597 10.70192796455
O 3.1188401844467086 -0.0351340854045681 8.251096307148046
O 5.700851398046709 1.483921665795432 8.228862303148047
O 10.658532234446705 1.3540616085954318 8.176185431548046
