80   
   
Ga -0.04185808 -0.0365318075 6.024202345
Ga -0.12557424 -0.1095954225 18.072607035
In 4.738338295 2.8091277625 6.07345091
Ga 4.654622135 2.7360641475 18.1218556
Al 3.169618525 0.0063922525 6.04652801
Ga 3.085902365 -0.0666713625 18.0949327
In 1.5268616900000005 2.7662037025 6.051125245
In 1.4431455300000002 2.6931400875 18.099529935
Al 0.0 0.0 0.0
Al -0.08371616 -0.073063615 12.048404690000002
Al 4.780196375 2.84565957 0.049248565
Ga 4.696480215 2.772595955 12.097653255
In 3.211476605 0.04292406 0.022325665
Ga 3.1277604450000003 -0.030139555 12.070730355
In 1.5687197700000002 2.80273551 0.0269229
Al 1.48500361 2.729671895 12.07532759
Al -0.0456055937644999 1.835730998018 3.0226068334955
In -0.1293217537644999 1.762667383018 15.071011523495502
Ga -1.6883624287644998 4.5955424480180005 3.0272040684955
Al -1.7720785887645 4.522478833018 15.0756087584955
Ga 3.1658710112355 1.878655058018 3.0449324984955
Ga 3.0821548512355 1.805591443018 15.0933371884955
Ga 1.5231141762355005 4.638466508018 3.0495297334955
Al 1.4393980162355005 4.565402893018 15.0979344234955
Ga 1.5306092037644998 0.8939408969819999 9.052720756504499
Ga 1.4468930437645 0.8208772819819998 21.1011254465045
In -0.1121476312354998 3.653752346982 9.0573179915045
Ga -0.1958637912354998 3.580688731982 21.105722681504496
Al 4.7420858087645 0.936864956982 9.0750464215045
Al 4.6583696487645 0.8638013419819999 21.1234511115045
Al 3.099328973764501 3.696676406982 9.0796436565045
Al 3.0156128137645006 3.623612791982 21.128048346504496
O -0.0593266723885 1.8237558715195 4.9973403621865
O -0.1430428323884999 1.7506922565195 17.0457450521865
O -1.7020835073885 4.5835673215195 5.0019375971865
O -1.7857996673885 4.510503706519501 17.0503422871865
O 3.1521499326115 1.8666799315195 5.0196660271865
O 3.0684337726115003 1.7936163165194998 17.068070717186497
O 1.5093930976115004 4.6264913815195 5.0242632621865
O 1.4256769376115004 4.5534277665195 17.0726679521865
O 1.5443302823885 0.9059160234804998 7.077987227813499
O 1.4606141223885 0.8328524084804998 19.126391917813496
O -0.0984265526114998 3.6657274734805 7.082584462813499
O -0.1821427126114998 3.5926638584805 19.130989152813502
O 4.7558068873885 0.9488400834805 7.100312892813499
O 4.6720907273885 0.8757764684804998 19.1487175828135
O 3.113050052388501 3.7086515334805 7.1049101278135
O 3.0293338923885007 3.6355879184805 19.153314817813506
O 1.5168881251405 0.8819657704834999 11.027454285195502
O 1.4331719651405 0.8089021554834999 23.075858975195494
O -0.1258687098594998 3.6417772204835 11.0320515201955
O -0.2095848698594998 3.5687136054835 23.0804562101955
O 4.7283647301405 0.9248898304835 11.0497799501955
O 4.6446485701405 0.8518262154834999 23.098184640195495
O 3.085607895140501 3.6847012804835 11.0543771851955
O 3.001891735140501 3.6116376654835 23.1027818751955
O -0.0318845151405 1.8477061245165 1.0478733048045
O -0.1156006751405 1.7746425095165 13.096277994804499
O -1.6746413501405 4.6075175745165 1.0524705398045
O -1.7583575101404998 4.5344539595165 13.1008752298045
O 3.1795920898595003 1.8906301845165 1.0701989698045
O 3.0958759298595 1.8175665695165 13.1186036598045
O 1.5368352548595003 4.6504416345165 1.0747962048045
O 1.4531190948595003 4.5773780195165 13.1232008948045
O -0.02092904 -0.01826590375 3.0121011725
O -0.1046452 -0.09132951875 15.0605058625
O 4.759267335 2.82739366625 3.0613497375
O 4.675551175 2.75433005125 15.1097544275
O 3.190547565 0.02465815625 3.0344268375
O 3.106831405 -0.04840545875 15.0828315275
O 1.5477907300000002 2.78446960625 3.0390240725
O 1.4640745700000002 2.71140599125 15.0874287625
O -0.06278712 -0.05479771125 9.0363035175
O -0.14650328 -0.12786132625 21.0847082075
O 4.717409255 2.79086185875 9.0855520825
O 4.633693095 2.71779824375 21.1339567725
O 3.148689485 -0.01187365125 9.0586291825
O 3.064973325 -0.08493726625 21.1070338725
O 1.50593265 2.74793779875 9.0632264175
O 1.4222164900000005 2.67487418375 21.1116311075
