80   
   
Ga 10.863422784095 6.24279e-06 1.2038393773049998
Ga 10.863415384095 3.14962165779 1.203842097305
Al 23.165171489095002 1.440279e-05 1.178267922305
Al 23.165164089095 3.14962981779 1.178270642305
In -0.1171218290949999 -3.81279e-06 4.756363947695
Al -0.1171292290950001 3.14961160221 4.7563666676950005
Ga 12.184626875904998 4.34721e-06 4.7307924926950005
Al 12.184619475904999 3.14961976221 4.730795212695
Ga 4.712544731594999 1.57480987029 1.2166264648049998
Ga 4.712537331594999 4.72442528529 1.216629184805
Ga 17.014293436595 1.57481803029 1.191055009805
Ga 17.014286036595003 4.72443344529 1.1910577298049998
Ga 6.033748823405 1.57480797471 4.743579580195
Ga 6.033741423405 4.72442338971 4.743582300195
Al 18.335497528405 1.5748161347099998 4.718008125195
Ga 18.335490128405 4.72443154971 4.718010845195
In 9.278729804405 1.57481063928 4.084737265425
Al 9.278722404405 4.72442605428 4.084739985425
Ga 21.580478509404998 1.57481879928 4.059165810425
In 21.580471109405 4.72443421428 4.0591685304250005
In 1.467563750595 1.57480720572 1.875468779575
In 1.4675563505949998 4.72442262072 1.875471499575
In 13.769312455595 1.57481536572 1.849897324575
Ga 13.769305055595002 4.7244307807200006 1.849900044575
In 3.127859151905 -1.14822e-06 4.097521632925
In 3.127851751905 3.14961426678 4.097524352925
In 15.429607856905 7.01178e-06 4.071950177925
In 15.429600456904998 3.14962242678 4.071952897925001
Ga 7.618441803095 3.57822e-06 1.862681692075
In 7.618434403095 3.14961899322 1.862684412075
Al 19.920190508095 1.173822e-05 1.837110237075
Ga 19.920183108095003 3.14962715322 1.837112957075
O 9.493815512284998 4.24431e-06 2.594635985575
O 9.493808112284999 3.1496196593100003 2.594638705575
O 21.795564217284998 1.240431e-05 2.569064530575
O 21.795556817285 3.14962781931 2.569067250575
O 1.252485442715 -1.81431e-06 3.365567339425
O 1.2524780427150002 3.14961360069 3.3655700594249995
O 13.554234147715 6.34569e-06 3.3399958844249995
O 13.554226747715001 3.14962176069 3.3399986044249994
O 3.342937459785001 1.57480787181 2.607423073075
O 3.3429300597850005 4.72442328681 2.607425793075
O 15.644686164784995 1.57481603181 2.581851618075
O 15.644678764784999 4.72443144681 2.581854338075
O 7.403356095215 1.57480997319 3.3527829719249995
O 7.403348695215 4.72442538819 3.3527856919249994
O 19.705104800215 1.57481813319 3.3272115169249994
O 19.705097400215003 4.72443354819 3.327214236925
O 8.887611671174998 1.7139e-06 5.305987389275
O 8.887604271175 3.1496171289 5.305990109275
O 21.189360376175003 9.8739e-06 5.280415934275
O 21.189352976175 3.1496252889 5.280418654275
O 1.858689283825 7.161e-07 0.654215935725
O 1.858681883825 3.1496161311 0.654218655725
O 14.160437988825 8.8761e-06 0.628644480725
O 14.160430588825 3.1496242911 0.628647200725
O 2.7367336186750006 1.5748053413999998 5.318774476775
O 2.7367262186750003 4.7244207564 5.318777196775
O 15.038482323674998 1.5748135014 5.293203021775
O 15.038474923675002 4.7244289164 5.293205741775
O 8.009559936325001 1.5748125036 0.641431568225
O 8.009552536325002 4.7244279186 0.641434288225
O 20.311308641325 1.5748206636 0.615860113225
O 20.311301241324998 4.7244360786 0.615862833225
O -1.1064943834299998 1.57480348275 4.44732973572
O -1.10650178343 4.724418897750001 4.44733245572
O 11.19525432157 1.57481164275 4.42175828072
O 11.195246921570002 4.724427057750001 4.42176100072
O 11.852787938429998 1.5748143622500002 1.51287630928
O 11.852780538429998 4.72442977725 1.51287902928
O 24.15453664343 1.57482252225 1.48730485428
O 24.15452924343 4.72443793725 1.48730757428
O 5.04438366907 -1.4475e-07 4.43454264822
O 5.04437626907 3.14961527025 4.43454536822
O 17.346132374069995 8.01525e-06 4.40897119322
O 17.346124974069998 3.14962343025 4.40897391322
O 5.70191728593 2.57475e-06 1.52566067678
O 5.701909885929999 3.14961798975 1.52566339678
O 18.00366599093 1.073475e-05 1.50008922178
O 18.003658590929998 3.14962614975 1.50009194178
