30   
   
In -0.00477345844772 0.00633797765984 2.1326330823344
In -0.02091702344772 0.02777265765984 9.345076882334402
In -0.02751367155228 0.03653138234016 12.2922545176656
In -0.01137010655228 0.01509670234016 5.0798107176656
In 2.6795446089847053 1.6197716621755962 6.942247931024008
Ga 2.6634010439847047 1.6412063421755962 14.154691731024007
Ga 2.6890915258801447 1.6070957068559162 2.676981766355208
Al 2.672947960880145 1.6285303868559162 9.889425566355207
In -0.0636979658801454 3.168196073144084 11.739953933644792
In -0.0475544008801454 3.146761393144084 4.5275101336447925
In -0.0541510489847054 3.155520117824404 7.474687768975992
In -0.0380074839847054 3.134085437824404 0.2622439689759924
O 3.7567013243384 0.0558104047248 3.6144824518236
O 0.8061352736884 1.4605422725912 3.603785755916
O -1.9293712555268 3.248221762684 3.5924455922604
O 1.8192582863116 3.3147495074088 10.813149944084
O -0.8727957444732001 1.4620606973160002 10.8125811177396
O 1.6385721056616 0.0520682752752 10.8223141381764
O 1.0134588317708253 1.6042347692405563 8.412188310513207
O 3.490453341120825 3.073975957106956 8.413400604605606
O 3.524826681905625 0.1942423471997562 8.421921330950008
O 1.8781827937440247 0.1528914119245562 1.2058290927736075
O 1.8438094529592248 3.032625021831756 1.1973083664292077
O 4.355177303094024 1.622632599790956 1.2070413868660077
O -1.7297837430940253 3.152659180209044 13.209894313133994
O 0.7472107662559746 4.622400368075442 13.211106607226393
O 0.7815841070407746 1.7426667581682436 13.219627333570791
O -0.8650597811208252 1.7013158228930438 6.003535095394392
O -0.8994331219056252 4.581049432800244 5.995014369049993
O 1.6119347282291745 3.171057010759444 6.004747389486792
