80   
   
Ga -0.00170407 -0.044763465 6.20965691
Ga -0.00511221 -0.134290395 18.62897073
In 5.13977836 2.8496737600000004 6.232390785
Ga 5.13637022 2.7601468300000005 18.651704605
In 3.40418362 -0.08159847 6.210650215
In 3.40077548 -0.1711254 18.629964035
In 1.73389067 2.8865087650000003 6.23139748
Ga 1.73048253 2.7969818350000004 18.6507113
In 0.0 0.0 0.0
Ga -0.00340814 -0.08952693 12.41931382
In 5.14148243 2.8944372250000003 0.022733875
In 5.13807429 2.8049102950000004 12.442047695
In 3.40588769 -0.036835005 0.000993305
In 3.40247955 -0.126361935 12.420307125
In 1.73559474 2.9312722300000003 0.02174057
Ga 1.7321866 2.8417453000000004 12.44105439
In 0.020913051607 1.9438814431845 3.1189896504055
In 0.017504911607 1.8543545131845 15.538303470405497
Ga -1.649379898393 4.911988678184501 3.1397369154055
Ga -1.652788038393 4.822461748184501 15.559050735405501
In 3.4268007416069994 1.9070464381845 3.1199829554055
In 3.423392601606999 1.8175195081845 15.539296775405498
In 1.756507791606999 4.8751536731845 3.1407302204055
Al 1.7530996516069994 4.7856267431845 15.560044040405497
Ga 1.7112735483929995 0.8978638568155 9.322064739594497
Ga 1.7078654083929998 0.8083369268155 21.741378559594494
In 0.0409805983929999 3.8659710918155 9.3428120045945
In 0.0375724583929999 3.7764441618155 21.762125824594495
In 5.117161238393001 0.8610288518155 9.323058044594498
In 5.113753098393 0.7715019218155 21.742371864594496
Ga 3.446868288393001 3.8291360868155 9.343805309594499
Ga 3.443460148393001 3.7396091568155 21.7631191295945
O 0.0203544574610001 1.9292079793575 5.1545151855035
O 0.016946317461 1.8396810493575 17.573829005503498
O -1.6499384925390002 4.8973152143575005 5.175262450503499
O -1.653346632539 4.807788284357501 17.5945762705035
O 3.426242147460999 1.8923729743575 5.155508490503499
O 3.4228340074609998 1.8028460443575 17.5748223105035
O 1.755949197460999 4.860480209357501 5.176255755503499
O 1.7525410574609994 4.7709532793575 17.595569575503493
O 1.7118321425389995 0.9125373206425 7.286539204496499
O 1.7084240025389998 0.8230103906425 19.705853024496495
O 0.0415391925389999 3.8806445556425 7.307286469496499
O 0.0381310525389999 3.7911176256425 19.726600289496496
O 5.1177198325390005 0.8757023156425001 7.287532509496499
O 5.114311692539001 0.7861753856425001 19.706846329496496
O 3.4474268825390006 3.8438095506425 7.308279774496498
O 3.4440187425390008 3.7542826206425 19.7275935944965
O 1.7107149542469997 0.8831903929885 11.3575902746925
O 1.7073068142469998 0.7936634629885 23.776904094692497
O 0.0404220042469999 3.8512976279885 11.378337539692499
O 0.0370138642469999 3.7617706979885 23.797651359692495
O 5.116602644247001 0.8463553879885001 11.3585835796925
O 5.113194504247001 0.7568284579885001 23.777897399692495
O 3.4463096942470006 3.8144626229885 11.379330844692499
O 3.4429015542470007 3.7249356929885 23.798644664692496
O 0.021471645753 1.9585549070115 1.0834641153075
O 0.0180635057530001 1.8690279770115 13.5027779353075
O -1.648821304247 4.926662142011501 1.1042113803075
O -1.652229444247 4.837135212011501 13.523525200307501
O 3.4273593357529992 1.9217199020115 1.0844574203075
O 3.4239511957529998 1.8321929720115 13.5037712403075
O 1.7570663857529991 4.8898271370115 1.1052046853075
O 1.7536582457529994 4.8003002070115 13.524518505307501
O -0.000852035 -0.0223817325 3.104828455
O -0.004260175 -0.1119086625 15.524142275
O 5.140630395 2.8720554925000004 3.12756233
O 5.137222255 2.7825285625000005 15.54687615
O 3.4050356550000003 -0.0592167375 3.10582176
O 3.401627515 -0.1487436675 15.525135579999997
O 1.734742705 2.9088904975000003 3.126569025
O 1.731334565 2.8193635675000004 15.545882845
O -0.002556105 -0.0671451975 9.314485365
O -0.005964245 -0.1566721275 21.733799185
O 5.138926325 2.8272920275000004 9.33721924
O 5.135518185 2.7377650975000005 21.75653306
O 3.403331585 -0.1039802025 9.31547867
O 3.399923445 -0.1935071325 21.73479249
O 1.733038635 2.8641270325000003 9.336225935000002
O 1.729630495 2.7746001025000004 21.755539755
