80   
   
In -0.01279479 -0.0311539925 6.139332285
Ga -0.03838437 -0.0934619775 18.417996855
In 5.01824515 2.7744695125 6.164075625
Ga 4.99265557 2.7121615275 18.442740195
Ga 3.31231848 -0.0805944675 6.145965825
Ga 3.2867289 -0.1429024525 18.424630395
In 1.69313188 2.8239099875 6.1574420850000005
Al 1.6675423000000005 2.7616020025 18.436106655
Ga 0.0 0.0 0.0
Ga -0.02558958 -0.062307985 12.27866457
Ga 5.03103994 2.805623505 0.02474334
Ga 5.00545036 2.7433155200000003 12.30340791
In 3.32511327 -0.049440475 0.00663354
In 3.29952369 -0.11174846 12.28529811
In 1.7059266700000002 2.85506398 0.0181098
Ga 1.68033709 2.7927559950000003 12.29677437
In 0.0225130703309999 1.9040871631355 3.079527176298
Ga -0.0030765096690001 1.8417791781355 15.358191746298
Ga -1.596673529669 4.808591618135501 3.091003436298
In -1.622263109669 4.7462836331355005 15.369668006298
Ga 3.3476263403310003 1.8546466881355 3.086160716298
Ga 3.322036760331 1.7923387031355 15.364825286298
Ga 1.7284397403310003 4.7591511431355 3.097636976298
In 1.7028501603310005 4.6968431581355 15.376301546298
Ga 1.657824019669 0.8886688318645 9.217247193702
Ga 1.632234439669 0.8263608468645 21.495911763702
In 0.0386374196690001 3.7931732868645 9.228723453702
Ga 0.0130478396690001 3.7308653018645 21.507388023702
Ga 4.9829372896690005 0.8392283568645 9.223880733702002
In 4.957347709669 0.7769203718645 21.502545303702
In 3.363750689669 3.7437328118645 9.235356993702
Ga 3.338161109669 3.6814248268645 21.514021563702
O 0.0183189381689999 1.893874884394 5.092000299321
O -0.0072706418310001 1.831566899394 17.370664869320997
O -1.600867661831 4.798379339394001 5.103476559321
O -1.626457241831 4.736071354394001 17.382141129321
O 3.343432208169 1.844434409394 5.098633839321
O 3.317842628169 1.782126424394 17.377298409321
O 1.7242456081690003 4.748938864394 5.110110099321
O 1.6986560281690004 4.686630879394 17.388774669321
O 1.662018151831 0.898881110606 7.204774070678999
O 1.636428571831 0.836573125606 19.483438640679
O 0.0428315518310001 3.803385565606 7.2162503306789985
O 0.0172419718310001 3.741077580606 19.494914900679003
O 4.987131421831 0.849440635606 7.211407610678998
O 4.961541841831 0.787132650606 19.490072180679
O 3.367944821831 3.753945090606 7.222883870678999
O 3.342355241831 3.691637105606 19.501548440679002
O 1.653629887507 0.878456553123 11.229720316725
O 1.628040307507 0.816148568123 23.508384886724997
O 0.0344432875070001 3.782961008123 11.241196576725
O 0.0088537075070001 3.720653023123 23.519861146725
O 4.978743157507 0.829016078123 11.236353856725
O 4.953153577507 0.766708093123 23.515018426725
O 3.359556557507 3.733520533123 11.247830116725002
O 3.3339669775070004 3.671212548123 23.526494686724998
O 0.0267072024929999 1.914299441877 1.067054053275
O 0.0011176224929999 1.851991456877 13.345718623275
O -1.592479397507 4.818803896877001 1.078530313275
O -1.618068977507 4.756495911877001 13.357194883275
O 3.3518204724930003 1.864858966877 1.073687593275
O 3.326230892493 1.802550981877 13.352352163275
O 1.7326338724930004 4.769363421877 1.085163853275
O 1.7070442924930005 4.707055436877 13.363828423275
O -0.006397395 -0.01557699625 3.0696661425
O -0.031986975 -0.07788498125 15.3483307125
O 5.024642545000001 2.79004650875 3.0944094825
O 4.999052965000001 2.7277385237500003 15.3730740525
O 3.318715875 -0.06501747125 3.0762996825
O 3.293126295 -0.12732545625 15.3549642525
O 1.6995292750000002 2.83948698375 3.0877759425
O 1.6739396950000005 2.77717899875 15.3664405125
O -0.019192185 -0.04673098875 9.2089984275
O -0.044781765 -0.10903897375 21.4876629975
O 5.011847755000001 2.7588925162500004 9.2337417675
O 4.986258175000001 2.69658453125 21.5124063375
O 3.305921085 -0.09617146375 9.2156319675
O 3.280331505 -0.15847944875 21.4942965375
O 1.686734485 2.8083329912500004 9.2271082275
O 1.6611449050000002 2.74602500625 21.5057727975
