80   
   
Al 10.722203485755 5.85105e-07 1.216981468675
Al 10.722195530755002 3.118366045105 1.217000973675
In 22.873695330755 2.230105e-06 1.213076193675
Al 22.873687375755 3.1183676901050004 1.213095698675
Ga -0.1487731107549999 -3.380105e-06 4.732924786325
Al -0.148781065755 3.118362079895 4.732944291325
Al 12.002718734245 -1.735105e-06 4.729019511325
In 12.002710779245 3.1183637248950005 4.729039016325
Al 4.646453585755001 1.559182492605 1.218943858675
Al 4.646445630755001 4.677547952605001 1.218963363675
Al 16.797945430755 1.559184137605 1.215038583675
Ga 16.797937475755003 4.677549597605001 1.215058088675
Ga 5.926968834245001 1.559180172395 4.730981901325
Al 5.926960879245001 4.677545632395001 4.731001406325
Al 18.078460679244998 1.559181817395 4.727076626325
Al 18.078452724244997 4.677547277395001 4.727096131325
Al 9.136850495725 1.559181067605 4.081040125805001
Al 9.136842540725002 4.677546527605001 4.081059630805001
In 21.288342340725 1.5591827126050002 4.077134850805001
Al 21.288334385724998 4.677548172605 4.077154355805001
In 1.436571924275 1.5591815973950005 1.868885634195
Ga 1.436563969275 4.677547057395 1.868905139195
In 13.588063769275 1.5591832423950005 1.864980359195
In 13.588055814275 4.677548702395001 1.864999864195
Al 3.0611085507250007 -2.484895e-06 4.082983010805001
In 3.0611005957250006 3.118362975105 4.083002515805001
In 15.212600395724998 -8.39895e-07 4.079077735805001
In 15.212592440724999 3.118364620105 4.079097240805001
Al 7.512321824275001 -3.10105e-07 1.866923244195
In 7.512313869275002 3.118365149895 1.866942749195
In 19.663813669275 1.334895e-06 1.863017969195
In 19.663805714275 3.1183667948950005 1.863037474195
O 9.359670893425 -5.79865e-07 2.5985859761850003
O 9.359662938425002 3.118364880135001 2.5986054811850003
O 21.511162738425 1.065135e-06 2.594680701185
O 21.511154783425 3.1183665251350003 2.594700206185
O 1.213759481575 -2.215135e-06 3.351320278815
O 1.213751526575 3.1183632448650003 3.351339783815
O 13.365251326575 -5.70135e-07 3.347415003815
O 13.365243371575 3.118364889865 3.347434508815
O 3.283920993425 1.5591813276350002 2.600548366185
O 3.283913038425 4.677546787635 2.600567871185
O 15.435412838424998 1.5591829726350002 2.5966430911850003
O 15.435404883424999 4.6775484326350005 2.5966625961850003
O 7.289501426575 1.559181337365 3.349377393815
O 7.2894934715750015 4.677546797365 3.349396898815
O 19.440993271575003 1.559182982365 3.345472118815
O 19.440985316575002 4.677548442365 3.345491623815
O 8.742020982275 -2.578025e-06 5.295631357075
O 8.742013027275 3.118362881975 5.295650862075
O 20.893512827275 -9.33025e-07 5.291726082075001
O 20.893504872275003 3.118364526975 5.291745587075001
O 1.831409392725 -2.16975e-07 0.654274897925
O 1.831401437725 3.118365243025 0.6542944029250001
O 13.982901237725002 1.428025e-06 0.650369622925
O 13.982893282725005 3.118366888025 0.650389127925
O 2.6662710822750006 1.559179329475 5.297593747075
O 2.6662631272750006 4.677544789475 5.297613252075
O 14.817762927274998 1.559180974475 5.293688472075
O 14.817754972274995 4.677546434475 5.293707977075
O 7.907151337724998 1.559183335525 0.652332012925
O 7.907143382725 4.677548795525 0.652351517925
O 20.058643182725 1.559184980525 0.648426737925
O 20.058635227725 4.677550440525 0.6484462429250001
O -1.12389768233 1.55917943766 4.4236760981900005
O -1.12390563733 4.67754489766 4.4236956031900005
O 11.02759416267 1.55918108266 4.41977082319
O 11.02758620767 4.67754654266 4.41979032819
O 11.69732010233 1.55918322734 1.52624966181
O 11.69731214733 4.67754868734 1.52626916681
O 23.84881194733 1.55918487234 1.5223443868100002
O 23.84880399233 4.67755033234 1.5223638918100002
O 4.951852217670001 -2.46984e-06 4.42171370819
O 4.951844262670001 3.1183629901600005 4.4217332131900005
O 17.10334406267 -8.2484e-07 4.41780843319
O 17.10333610767 3.1183646351600003 4.41782793819
O 5.62157815733 -3.2516e-07 1.5281925468100002
O 5.62157020233 3.1183651348400003 1.5282120518100002
O 17.77307000233 1.31984e-06 1.52428727181
O 17.77306204733 3.11836677984 1.52430677681
