40   
   
In 7.959518740775746 -0.1258687111717762 13.609470779928447
Ga 5.123981375 -0.06564919 -0.20976391
Al 9.297302985474253 1.3636251011717762 1.9811540288215528
Al 4.173321610474252 1.4292742911717762 2.1909179388215527
In 4.89684869375 -0.072087475 5.25248374625
Al 1.5313350717242518 -0.0268906188282238 4.178493587571554
Al -0.302843575 -0.00858438 7.282996875
Al 8.338073209525746 -0.1151382361717762 4.505724686178447
In 2.2634320700000004 1.445434435 7.116170445
Al 7.387413445 1.379785245 6.906406535
In 8.110940528275746 -0.1215765211717762 9.96797234242845
Ga 4.74542690625 -0.076379665 8.893982183749998
Al 2.911248259525748 -0.0580734261717762 11.99848547117845
In 1.304202390474252 -0.0333289038282238 9.640741243821552
Al 5.477523904525748 1.3959453888282238 11.831659041178447
Al 10.601505279525746 1.3302961988282238 11.621895131178448
O 3.43282392725 -0.0461007938 1.09547000995
O 1.155809038724252 -0.0375352500282238 13.209409712571553
O 5.89644854645 1.3497572686 0.93531663715
O 11.02077271805 1.4030555514 0.7205971691500002
O 8.486466561275748 -0.1109318899717762 0.9370562174284468
O 6.209451672749999 -0.1023663462 13.05099592005
O 8.87837834355 1.4098132214 12.87749643285
O 3.75405417195 1.3565149386 13.09221590085
O 6.646915761775747 -0.0955898399717762 5.810958606128447
O 4.97558802325 -0.0698555362 3.35890455875
O 9.110540380975747 1.3002682224282236 5.650805233328447
O 3.986901802575749 1.4848648852282238 5.855613585328447
O 1.452595742224252 -0.0291225576282238 6.072072775071554
O 10.029230657275747 -0.1346866323717762 3.2004907662284467
O 12.698157328075748 1.3774929352282237 3.026991279028447
O 7.5738331564757475 1.3241946524282235 3.2417107470284474
O -0.386955057275748 -0.0137805076282238 10.945975163771552
O 8.189679857775747 -0.1193445823717762 8.074393154928446
O 2.076669561924252 1.382077554771776 10.785821790971552
O 7.200993733524252 1.4353758375717762 10.571102322971552
O 4.666687576749999 -0.0786116038 10.78756137125
O 2.9953598382242514 -0.0528773000282238 8.335507323871553
O 5.664286509024252 1.4593022675717762 8.162007836671554
O 10.787925087424249 1.274705604771776 7.957199484671554
