80   
   
In 7.67117048 2.551352435 7.683795072499999
Ga 2.55639086 7.67140804 7.6818686675
In 7.678103744999999 7.67113691 2.5684734425
In 7.673856464999998 7.668813165 7.6860587925
Ga 2.56063814 7.673731785 2.5642833175
In 7.675417759999998 2.55367618 2.5662097225
In 2.553704875 2.5539473100000003 7.679604947499999
In 2.557952155 2.5562710550000003 2.5620195975
In 7.674454465519998 4.763257342860001 5.12598032454
In 2.56392212552 9.88563669286 0.00646856954
In 7.679067039479999 5.461555747140001 0.00870284046
In 5.11753611754 7.67143048966 4.7771752512
In -0.00686275246 2.55424088966 9.888306756199999
In -0.00050711754 7.67370933534 5.4689767338
In 4.76579300886 5.111556689 7.682546941499998
In 9.88481990886 -0.006175171 2.5668879965
In 5.45908234614 -0.006256944 7.680853078499998
In 2.55735415448 5.461826877140001 5.12209806546
In 7.676381054479998 0.3440950171400001 0.00643912046
In 2.56123614052 4.768175962860001 0.00420484954
In 5.11427250246 2.55365373034 5.4709031388
In 0.00374016246 7.67603308034 0.3513913838
In -0.00261547246 2.5565646346600004 4.7707214062
In 5.4660156111400005 5.113527531000001 2.5655314485
In 0.34161674114 -0.003662069 7.676662953499998
In 4.76735430386 -0.003580296 2.5626978715
In 2.55466816948 0.3443661471400001 5.119834345459999
In 5.118519782459999 2.55597747534 0.3533177888
In 0.34855000614 5.116122406000001 2.5613413235
In 7.677140450519999 9.88071807286 5.12824404454
In 5.11328883754 7.66910674466 9.8947606012
In 9.88325861386 5.108961814000001 7.686737066499998
O 6.342185359109999 3.995587892420001 6.72123796324
O 3.88689087643 9.1134204343 8.64570251484
O 9.00868584317 6.2277751807 1.60681846016
O 6.34175947129 6.22592704258 8.64643703676
O 6.7141241222 6.340429660610001 4.0102562005
O 8.632754636879998 3.88074909221 9.1283304519
O 1.5962034153199998 9.00309096239 6.238510422499999
O 8.636439375599998 6.33844083479 6.2430989001
O 4.00011548823 6.709197841710001 6.35205251239
O 9.12062971799 8.63188359879 3.90065282811
O 6.22643592141 1.58939739881 9.01276006889
O 6.232340422369999 8.63223171069 6.35473056561
O 3.88962326089 6.22949632758 3.5268404267599998
O 6.34491774357 1.1116637857 1.60237587516
O 1.22312277683 3.9973090393000006 8.641259929839999
O 3.89004914871 3.9991571774200008 1.60164135324
O 3.5176844977999995 3.88465455939 6.237822189499999
O 1.5990539831199997 6.34433512779 1.1197479381
O 8.63560520468 1.22199325761 4.0095679675
O 1.5953692443999998 3.88664338521 4.0049794899
O 6.231693131769999 3.51588637829 3.89602587761
O 1.1111789020099998 1.59320062121 6.34742556189
O 4.00537269859 8.635686821190001 1.2353183211099998
O 3.99946819763 1.59285250931 3.89334782439
O 1.23165301911 9.11796724242 1.60172620824
O 9.005917776429998 3.995688574300001 3.53004356984
O 3.88428697317 1.1105855807 6.71794996516
O 1.22585516129 1.1133849325799998 3.52239784176
O 1.5897252521999996 1.22324006061 9.1213877055
O 3.5222222968799994 9.003128442210002 4.0088186969
O 6.71523031532 3.88535910239 1.1228514775
O 3.5205350655999994 1.22589872479 1.1190597051
O 9.11914238823 1.59146598171 1.23639356739
O 3.99623084799 3.5146939987899994 9.011784333109999
O 1.1159035814099998 6.711776748810001 3.89324831389
O 1.1164361123699995 3.51968960069 1.2306913706099998
O 9.00015560089 1.1071169775799998 8.646352181759998
O 1.2258908435699998 6.2293956457 6.71803482016
O 6.34752164683 9.1144986393 3.53012842484
O 9.005953458709998 9.11169928742 6.72568054824
O 8.642083367799998 9.001844159390004 1.1266906845
O 6.70958632312 1.22195577779 6.239259693099999
O 3.5165783046799994 6.3397251176100005 9.125226912499999
O 6.7112735544 8.999185495210002 9.1290186849
O 1.1126662317699998 8.633618238289998 9.01168482261
O 6.235577772009999 6.710390221210001 1.2362940568899998
O 9.11590503859 3.51330747119 6.35483007611
O 9.11537250763 6.705394619310001 9.01738701939
