40   
   
In 8.498237236360684 -0.0581086098142542 14.046429577027684
Al 6.874230512389317 0.0095394798142542 2.3810576254723133
Ga 5.17143133 0.01882677 -0.05922476
Ga 9.454588467389318 1.5322730448142543 2.3610976604723133
In 4.283157137389316 1.5134462748142543 2.4203224204723126
Ga 5.12415591625 -0.01618971 5.4758290675
Ga 1.6870407111393162 -0.0209594501857458 4.285300327972314
Ga 8.577029592610684 0.0002521901857458 4.821339864527686
Al 2.5173240700000004 1.476044925 7.360111805
In 7.6887554 1.494871695 7.300887044999999
Al 8.529754178860685 -0.0347642898142542 10.356393692027684
In 5.09263897375 -0.03953403 9.1658649525
Al 3.3425643776106835 -0.0652632198142542 12.260636394527687
Al 1.6397652973893162 -0.0559759301857458 9.820354155472314
Ga 5.922922332610684 1.4574703451857458 12.240676429527689
In 11.094353662610684 1.4762971151857458 12.181451669527684
O 3.50585754395 0.0048651348 1.2143393641
O 1.608878693739316 -0.0788533637857458 13.436589322772312
O 5.9830011807500005 1.4666893572 1.1951777977
O 11.15400389395 1.6065817416 1.1367252309
O 8.607916196260684 0.0231296237857458 1.2051046972276866
O 6.710937346050001 -0.0605888748 13.4273546559
O 9.394509619250002 1.5230540328000002 13.4065962923
O 4.223506906050001 1.3831616484 13.4650488591
O 6.911455806560683 -0.0137094450142542 6.094903988627687
O 5.14054472635 -0.0040506636 3.5570104073
O 9.38859944336068 1.4481147773857457 6.0757424222276875
O 4.216739496560685 1.550353621785746 6.135739375427686
O 1.6706519010393162 -0.0330984965857458 6.204118988172314
O 10.242603378660684 0.0142138253857458 3.5477757404276864
O 12.926175651860685 1.5978567329857458 3.5270173768276862
O 7.755172938660683 1.457964348585746 3.5854699436276865
O -0.0258084886606837 -0.0699375653857458 11.093918279572312
O 8.546142988960684 -0.0226252434142542 8.437575031827686
O 2.4513351481393166 1.391886657014254 11.074756713172311
O 7.622337861339315 1.5317790414142542 11.016304146372311
O 5.07625016365 -0.0516730764 11.0846836127
O 3.305339083439316 -0.0420142949857458 8.546790031372314
O 5.988911356639316 1.5416286126142542 8.526031667772314
O 11.160771303439315 1.439389768214254 8.466034714572313
