80   
   
In 7.05389437 2.350138485 7.02900475
Ga 2.349373995 7.034807809999999 7.0481142000000006
Ga 7.033124125 7.052728349999999 2.34218178
In 7.04416821 7.044717704999999 7.03684317
Al 2.33832991 7.042818454999999 2.3534528100000003
Al 7.042850285 2.35814913 2.33434336
Al 2.359100155 2.34022859 7.04027578
Al 2.34805607 2.348239235 2.34561439
Al 7.04417062638 4.38220203054 4.6850602524400005
In 2.32860616638 9.07488200054 0.00950831244
Al 7.03180378362 5.02867544946 -0.00853511244
Al 4.69049806222 7.04431280386 4.375911015480001
In 0.01647409222 2.33181304386 9.074005015480001
Al -0.00279415722 7.03331346114 5.025655994520001
Al 4.382388175880001 4.691799274639999 7.03932590504
In 9.07586446588 0.01514059464 2.32555506504
In 5.03060634912 -0.00143219964 7.02995462496
Al 2.34805365362 5.01075490946 4.69739730756
In 7.04152994362 0.3340962294599999 -0.01637353244
Ga 2.33833232638 4.38030278054 0.00166989244
Al 4.70172621778 2.3486441361399994 5.006546544520001
Al -0.01383824222 7.04132410614 0.3309946045200001
Al 0.00543000722 2.33982368886 4.379343625480001
Al 5.009836104120001 4.701157665359999 2.34313165496
Al 0.33581213412 -0.01134209464 7.041225654960001
Ga 4.381070250880001 0.00523069964 2.33682609504
In 2.35777981362 0.31617568946 4.6895588875600005
Al 4.69068213278 2.35665478114 0.31188515452
Al 0.31504188912 4.69124777036 2.35440268496
Ga 7.03444446638 9.076781250539998 4.69289867244
Ga 4.70154214722 7.036302158859999 9.07057240548
Al 9.077182390880001 4.70170916964 7.0280548750400005
O 5.828428809000001 3.6729392536 6.151549310920001
O 3.56935400176 8.35974972148 7.92999050796
O 8.254437110039998 5.73293958392 1.45444453644
O 5.8283407792 5.716763790999999 7.92015954468
O 6.156146046150001 5.828015690649999 3.666157256420001
O 7.9371013127899985 3.5703331405699994 8.35281829754
O 1.4611094490099998 8.255794348829998 5.728376630860001
O 7.926203892049998 5.828249169949999 5.70879171518
O 3.67226301961 6.15710427473 5.82285018518
O 8.358099037650002 7.936021066049999 3.5610889339000003
O 5.73466238155 1.46268023355 8.251321518900001
O 5.71553626119 7.92658677567 5.820883262020001
O 3.563795471 5.720017686399999 3.23090824908
O 5.822870278240001 1.03320721852 1.45246705204
O 1.13778716996 3.66001735608 7.92801302356
O 3.5638835008 3.676193149 1.46229801532
O 3.23607823385 3.56494124935 5.716300303580001
O 1.45512296721 5.82262379943 1.02963926246
O 7.931114830989999 1.1371625911699998 3.654080929140001
O 1.46602038795 3.56470777005 3.67366584482
O 5.71996126039 3.2358526652699995 3.55960737482
O 1.03412524235 1.4569358739499998 5.8213686261
O 3.657561898450001 7.930276706449998 1.1311360411
O 3.67668801881 1.46637016433 3.56157429798
O 1.112864349 8.365619223599996 1.47599737092
O 8.26283029176 3.68309104148 3.21621966796
O 3.58041314004 1.02043982392 6.152538536440001
O 1.1322286391999998 1.0202853209999998 3.22893076468
O 1.48212207615 1.11551593065 8.364251256420001
O 3.2215368527899995 8.26301311057 3.67726635754
O 6.15458573901 3.57913566883 1.01460579086
O 3.23009175205 1.13177069995 1.01756293518
O 8.365739309609998 1.48044559473 1.10907934518
O 3.68407506765 3.2235213060499994 8.2591829339
O 1.01909792155 6.155360203550001 3.5757695789
O 1.01942412119 3.2301083056699995 1.12965448202
O 8.279359931 1.0273377164 7.90646018908
O 1.12939398824 5.70986589852 6.166237892040001
O 5.81181113996 8.37251711608 3.22991902356
O 8.259995640799998 8.372671618999998 6.15352679532
O 7.910102203849998 8.277441009349998 1.01820630358
O 6.17068742721 1.1299438294299995 5.70519120246
O 3.2376385409899995 5.813821271169999 8.367851769140001
O 6.162132527950001 8.26118624005 8.36489462482
O 1.02648497039 7.912511345269999 8.273378214820001
O 5.70814921235 6.16943563395 1.1232746261
O 8.373126358449998 3.23759673645 5.8066879811000005
O 8.372800158810001 6.16284863433 8.252803077980001
