80   
   
Ga 1.66441376156 7.490530332109999 6.54043311993
Al 6.79283098656 7.466603907109999 6.51718195993
Ga 3.5428071559399994 1.29785135569 1.83637837465
Ga 8.671224380939998 1.27392493069 1.81312721465
Al 0.98683309566 3.08628070381 1.84416919877
Ga 6.11525032066 3.06235427881 1.82091803877
Ga 4.22038782184 5.70210098399 6.53264229581
Ga 9.34880504684 5.67817455899 6.50939113581
Al 0.944810125655 5.782423690905 -0.01665339016
Ga 6.073227350655 5.758497265905 -0.03990455016
Al 4.245646584345 2.998059794095001 4.68305732516
Al 9.374063809345 2.9741333690950005 4.65980616516
Al 1.673937191605 1.391855833555 4.69817595012
Al 6.802354416605 1.367929408555 4.67492479012
Ga 3.559068268395 7.408673851445 9.38550605488
Ga 8.687485493395 7.384747426445 9.36225489488
In 0.90530324835 0.2798381187 9.40338507885
In 6.03372047335 0.2559116937 9.38013391885
Ga 4.32761711415 8.520651473900001 4.66146237001
Ga 9.45603433915 8.4967250489 4.63821121001
In 1.74547185325 4.66308449 4.68144088361
Al 6.87388907825 4.639158065 4.65818972361
Ga 3.4874485092500005 4.137405102600001 9.38340656525
Al 8.61586573425 4.113478677600001 9.36015540525
In 3.5528517876450003 1.380105487445 7.39249031791
Al 8.681269012645 1.356179062445 7.36923915791
Ga 1.662027904855 7.4118845163549985 2.67943122927
Al 6.790445129855 7.3879580913549985 2.65618006927
Ga 4.218654206895 5.764165357195001 2.67133666211
In 9.347071431895 5.740238932195001 2.64808550211
Ga 0.996225485605 3.0278246466050005 7.40058488507
Ga 6.124642710605 3.0038982216050005 7.37733372507
O 4.316725771865 5.881511026165001 8.37765384901
O 9.445142996864998 5.8575846011650015 8.354402689009998
O 0.907174255635 2.9147287720350006 3.69073064901
O 6.035591480635 2.8908023470350006 3.66747948901
O 3.464778920315 1.478074896315 3.68218046729
O 8.593196145315002 1.454148471315 3.65892930729
O 1.759121107185 7.318164901885 8.386204030730001
O 6.887538332185 7.294238476885 8.36295287073
O 2.7195490928650004 0.079197167965 5.9110901915700005
O 7.847966317864999 0.055270742965 5.88783903157
O 2.481885194635 8.706458236635 1.18497148549
O 7.610302419634999 8.682531811634998 1.16172032549
O 5.0264450241150005 4.455600581715 1.18249616457
O 10.154862249115 4.431674156715 1.15924500457
O 0.174989263385 4.330054822885001 5.91356551249
O 5.303406488385 4.306128397885001 5.89031435249
O 0.115787403095 7.275024585694998 1.12344216069
O 5.244204628095 7.2510981606949985 1.10019100069
O 5.084966104405 1.5103100797050002 5.82194306725
O 10.213383329405 1.486383654705 5.79869190725
O 2.527035318845 2.876608860945 5.83064512049
O 7.655452543844999 2.8526824359450003 5.80739396049
O 2.673718188655 5.908725804455001 1.11474010745
O 7.802135413655 5.884799379455001 1.09148894745
O 5.046006512049999 7.33284597685 5.96977169124
O 10.17442373705 7.30891955185 5.94652053124
O 0.15619365295 1.4531702593500002 1.29580099108
O 5.28461087795 1.4292438343500002 1.27254983108
O 2.72733233415 2.9362528045500005 1.28094814128
O 7.855749559149999 2.9123263795500005 1.25769698128
O 2.47486783085 5.8497634316500005 5.9846245410400005
O 7.60328505585 5.825837006650001 5.9613733810400005
O 1.895135904425 1.5037683274750002 8.143741870059998
O 7.023553129424999 1.4798419024750002 8.12049071006
O 3.326466490575 7.291388975925 3.41610961218
O 8.454883715574999 7.267462550925 3.39285845218
O 0.7557354604750001 5.896250298825001 3.43077262258
O 5.884152685475001 5.872323873825001 3.40752146258
O 4.465866934525 2.8989070045750003 8.12907885966
O 9.594284159525 2.8749805795750003 8.10582769966
O 4.325691440209999 0.00683347551 8.4560933093
O 9.45410866521 -0.01709294949 8.4328421493
O 0.8988042697899999 8.78968696949 3.7441330817
O 6.027221494789999 8.76576054449 3.7208819217
O 3.44271185751 4.39811912561 3.74196150382
O 8.571129082509998 4.37419270061 3.71871034382
O 1.78178385249 4.3984013193900005 8.45826488718
O 6.91020107749 4.3744748943900005 8.435013727179998
