80   
   
In 1.6555101745899998 7.4311707564799985 6.495589624649999
Ga 6.7392269245900005 7.40360645148 6.47255541465
In 3.5129069485099995 1.2849529883 1.82359683945
Al 8.596623698509998 1.2573886833 1.80056262945
Ga 0.98054470259 3.0618244203 1.83180248169
Ga 6.06426145259 3.0342601152999995 1.80876827169
Al 4.18787242051 5.654299324479999 6.487383982409999
Al 9.27158917051 5.62673501948 6.46434977241
Al 0.94091823357 5.738198394905 -0.01490996763
Ga 6.02463498357 5.710634089905 -0.03794417763
Al 4.210888381429999 2.971083985095 4.650322452629999
Ga 9.29460513143 2.943519680095 4.62728824263
Ga 1.6603800670700002 1.378883823595 4.66485593955
Ga 6.744096817069999 1.351319518595 4.641821729549999
Ga 3.5335851979300004 7.347762426404999 9.32023669545
Ga 8.61730194793 7.3201981214049985 9.29720248545
Ga 0.8975912215499999 0.27456064539 9.33596892117
Ga 5.98130797155 0.24699634039 9.31293471117
Al 4.29628972615 8.452050876869999 4.63042435353
Ga 9.38000647615 8.42448657187 4.60739014353
Ga 1.73374671355 4.62544053937 4.64915454573
Al 6.81746346355 4.597876234369999 4.62612033573
Ga 3.46013423415 4.10117098289 9.317238728969999
Al 8.543850984149998 4.07360667789 9.29420451897
Al 3.52290548608 1.365105682515 7.339846083539999
Ga 8.60662223608 1.337541377515 7.31681187354
Ga 1.65310019402 7.354143558864998 2.66228280756
Ga 6.736816944019999 7.326579253865 2.6392485975599995
Al 4.18621460858 5.716922762865 2.65381487124
Ga 9.26993135858 5.6893584578650005 2.63078066124
Ga 0.98979107152 3.002326478515 7.34831401986
Ga 6.07350782152 2.974762173515 7.325279809859999
O 4.28349891146 5.8317973448150005 8.31920184264
O 9.36721566146 5.804233039815 8.296167632639998
O 0.90144440244 2.891133037005 3.66505924026
O 5.98516115244 2.863568732005 3.64202503026
O 3.43568706996 1.4633881950049998 3.65619786282
O 8.51940381996 1.435823890005 3.63316365282
O 1.74925624394 7.259542186814999 8.32806322008
O 6.8329729939399995 7.2319778818149985 8.30502901008
O 2.69589217946 0.075004096855 5.86870831368
O 7.779608929459998 0.047439791855 5.84567410368
O 2.46679136724 8.638758161605 1.17892165002
O 7.55050811724 8.611193856605 1.15588744002
O 4.98599066196 4.418000599605 1.1753061541799998
O 10.06970741196 4.390436294605 1.15227194418
O 0.17669288474 4.295761658855 5.872323809519999
O 5.260409634739999 4.268197353854999 5.84928959952
O 0.12023466448 7.219879811944998 1.1174084597399998
O 5.20395141448 7.192315506945 1.09437424974
O 5.04177434382 1.493604624595 5.78062662156
O 10.125491093820001 1.4660403195949998 5.757592411559999
O 2.50715559198 2.8515241485950003 5.78961914604
O 7.59087234198 2.823959843595 5.766584936039999
O 2.65485341632 5.861960287945 1.1084159352599998
O 7.73857016632 5.834395982945 1.08538172526
O 5.0075237006 7.27230321085 5.92901821128
O 10.0912404506 7.2447389058499985 5.905984001279999
O 0.1559187018 1.44177159727 1.28690599512
O 5.2396354518 1.41420729227 1.26387178512
O 2.7057688686 2.91177745227 1.27260201552
O 7.789485618599999 2.88421314727 1.24956780552
O 2.4576735338 5.80229735585 5.94332219088
O 7.541390283799998 5.774733050850001 5.92028798088
O 1.87972292945 1.4888744048150002 8.085720785489999
O 6.96343967945 1.4613100998150002 8.06268657549
O 3.30294381735 7.233118328024998 3.39365756931
O 8.38666056735 7.205554023024999 3.37062335931
O 0.75356375595 5.850394120525 3.40779761511
O 5.83728050595 5.822829815525 3.38476340511
O 4.42910299085 2.871598612315 8.071580739689999
O 9.51281974085 2.844034307315 8.048546529689999
O 4.2879769985400005 0.00131188877 8.395439142059999
O 9.37169374854 -0.02625241623 8.37240493206
O 0.8975565364600001 8.721861587229998 3.71971746294
O 5.98127328646 8.694297282229998 3.69668325294
O 3.4160036625400005 4.36145338923 3.71636426118
O 8.49972041254 4.33388908423 3.69333005118
O 1.76952987246 4.36172008677 8.39879234382
O 6.85324662246 4.33415578177 8.37575813382
