20   
   
In 10.75635440576 -1.65643e-06 1.27449883229
In -0.2924113657600001 -7.21357e-06 5.04931509771
In 4.64041098076 1.62942506857 1.29004127229
Al 5.82352884924 1.62941974143 5.03377369771
In 9.07420528464 1.62942079083 4.33331888078
In 1.38973454536 1.62942401917 1.99049608922
In 2.9582650696400004 -6.16417e-06 4.34886028078
Al 7.50567797036 -2.70583e-06 1.97495364922
O 8.6401557054 -7.90695e-06 5.6299040089
O 1.8237873346 -9.6305e-07 0.6939099211
O 2.524212280400001 1.62941881805 5.6454464489000005
O 7.9397275496 1.62942599195 0.6783685211
O 9.34317772808 -3.78649e-06 2.75138398981
O 1.1207653119199998 -5.08351e-06 3.57242994019
O 3.22723430308 1.62942293851 2.76692642981
O 7.23670552692 1.62942187149 3.55688854019
O -1.26465393624 1.62942007962 4.72156522775
O 11.72859376624 1.62942473038 1.60224974225
O 4.851289488759999 -6.64538e-06 4.70602278775
O 5.61265355124 -2.22462e-06 1.61779114225
