40   
   
Ga 8.05188249852577 -0.0634031481010735 13.527642528824627
Al 4.9461661 -0.013486215 -0.050556985
Al 9.038627583974229 1.4307723831010737 2.2789915986753737
Ga 4.092461483974229 1.4442585981010736 2.3295485836753738
Ga 4.8711422425 -0.029500785 5.2758403175
Ga 1.5903701764742286 -0.0169511818989265 4.125901176175375
Al -0.10003181 -0.02135276 7.10186307
Al 8.176922261025771 -0.0367121981010735 4.650313691324626
Al 2.377051545 1.43451883 7.080976245
Ga 7.323217645 1.421032615 7.03041926
Ga 8.101898403525771 -0.0527267681010735 9.976710993824627
Ga 4.8211263375 -0.040177165 8.8267718525
Al 3.1307243510257714 -0.0445787431010735 11.802733746324627
Al 1.515346318974229 -0.0329657518989265 9.452298478675374
Ga 5.607807706025771 1.4112928468989263 11.781846921324627
Ga 10.553973806025768 1.3978066318989266 11.731289936324627
O 3.3463875403000003 -0.0128005954 1.1729379721000002
O 1.4663307320742285 -0.0434286042989265 12.932211382975375
O 5.7243875611 1.384836131 1.1528866201
O 10.6708736855 1.4883590918000005 1.1026809685
O 8.225937847925769 -0.0262493457010735 1.1704007870246262
O 6.345881039700001 -0.0568773546 12.9296741979
O 8.9220477289 1.457229099 12.9079518999
O 3.9755616045 1.3537061382 12.9581575515
O 6.577143701325771 -0.0360265785010735 5.8738086484246255
O 4.8971505131 -0.0239490674 3.4293559193000003
O 8.955143722125772 1.3616101478989264 5.853757296424625
O 4.009297646525771 1.4921055386989266 5.9046656148246255
O 1.5643619058742286 -0.0225028994989265 5.972385574375375
O 9.776700820725774 -0.0373978177010735 3.4268187342246255
O 12.352867509925773 1.4767086358989263 3.405096436224626
O 7.406381385525773 1.3731856750989264 3.4553020878246263
O -0.0844322407257714 -0.0322801322989265 10.675793435775374
O 8.127906674125772 -0.0471750505010735 8.130226595624626
O 2.2935677800742287 1.3653565941010737 10.655742083775374
O 7.240053904474228 1.4688795549010738 10.605536432175374
O 4.7951180669 -0.0457288826 10.6732562507
O 3.1151248786742283 -0.0336513714989265 8.228803521575374
O 5.691291567874228 1.4804550821010736 8.207081223575374
O 10.637137643474228 1.3499596913010734 8.156172905175374
