40   
   
In 3.03005013507088 1.734715447309466 0.5795354880985224
Ga 0.0904604084353551 -0.0496256048273892 13.663194898309175
Al -1.4840858261791203 4.355931037309467 2.4005364555985222
In 0.0201457488208794 1.7357021573094658 2.3818979755985223
Al 1.53761774382088 4.3484714223094665 2.380329830598522
In 3.05364850257088 1.7217696373094658 4.143847213098522
Al 4.581958796493766 0.8350853325179232 7.101158568592301
Ga 3.0777272214937654 3.455314212517924 7.119797048592301
In 1.5602552264937657 0.8425449475179232 7.1213651935923
Al 0.0314644896853551 -0.0172610798273892 4.752415585809177
Al 0.0668620409353551 -0.0366797948273892 10.098883173309176
In 0.0678228352437658 3.456300922517923 8.9221595360923
Al 1.5961332196853553 2.569616565172611 11.879470890809175
Al 3.100364794685355 -0.0506123148273892 11.860832410809175
Ga -1.4255703503146449 2.5770761801726114 11.899677515809175
Ga 3.08904605382088 1.7023509223094655 9.490314800598522
O 1.465149607843766 2.6434035537179232 1.2108157764923009
O 0.0210872958437659 5.1588232785179216 1.2287087172923008
O -1.4356858193562343 2.650564784117923 1.2302141364923007
O 3.11217245397088 1.6896640285094655 12.983340291098525
O 0.0083380895353551 -0.0045741860273892 1.259390095309177
O -1.3531023048562345 4.2821441013179244 13.0691915706923
O 0.0909600071437658 1.7667243765179232 13.051298629892301
O 1.5477331223437658 4.274982870917924 13.049793210692302
O -1.5206759689646443 4.377934786372611 5.989128098709177
O 0.0437248690353552 1.6528967511726107 5.969744079509177
O 1.6218957438353565 4.370176786772611 5.968113208709177
O 0.0319533166437658 3.475978553717923 3.5044057140923006
O 3.06591965367088 1.7150378161094657 5.997289310098521
O 4.618548938335354 0.8130815839726109 3.5125667829091767
O 3.054148100335355 3.5381196191726114 3.531950802109177
O 1.4759772255353552 0.8208395835726109 3.5335816729091767
O 4.54536874517088 0.857089028509466 10.689750353498525
O 3.10130643317088 3.372508753309466 10.707643294298522
O 1.6445333179708794 0.8642502589094659 10.70914871349852
O 0.0545908898353551 -0.0299479736273892 8.245441076309177
O 0.0800939863437658 3.4495691013179237 10.7756016330923
O 1.6327233624708792 2.5476128161094658 8.290879247698523
O 3.0767856744708797 0.0321930913094659 8.272986306898526
O 4.533558789670879 2.5404515857094654 8.271480887698523
