30   
   
Ga -0.00282648011356 0.00508141602128 2.0835267346954
Ga -0.01238547511356 0.02226647602128 9.1298956596954
In -0.01629150988644 0.02928870397872 12.0092111153046
In -0.00673251488644 0.01210364397872 4.962842190304601
In 2.613985569806782 1.564672397599754 6.780909397792281
Ga 2.6044265748067823 1.5818574575997542 13.827278322792282
Ga 2.6196385300339022 1.554509565557194 2.6138559284014806
In 2.6100795350339023 1.571694625557194 9.66022485340148
Ga -0.0447153700339023 3.073491684442806 11.47122146159852
Ga -0.0351563750339023 3.0563066244428065 4.42485253659852
Ga -0.0390624098067823 3.0633288524002467 7.304167992207722
In -0.0295034148067823 3.0461437924002466 0.2577990672077197
O 3.6545272773924 0.0438098397336 3.5280890105936
O 0.789930949214 1.4158973629868 3.5208376039744
O -1.8647555691064 3.1597015172796006 3.5129663129320003
O 1.784992210786 3.2121038870132006 10.5642397860256
O -0.8358341808936001 1.4175279927204 10.565040337068002
O 1.6018676426076 0.0413320202664 10.5717195794064
O 0.995826417312742 1.5526290813120742 8.21840093369048
O 3.4067429991343414 2.975488344565274 8.218220267071281
O 3.433528240813942 0.1764331088580741 8.22508017602888
O 1.826881100706342 0.1436936185916741 1.1765450591224804
O 1.8000958590267422 2.9427488542988742 1.1696851501648804
O 4.237797682527942 1.5665528818448742 1.1763643925032805
O -1.6628745225279424 3.0614483681551263 12.90871299749672
O 0.7480420592936577 4.484307631408326 12.90853233087752
O 0.7748273009732578 1.6852523957011258 12.91539223983512
O -0.8318198391343422 1.652512905434726 5.86685712292872
O -0.8586050808139422 4.451568141141926 5.85999721397112
O 1.5790967426872575 3.075372168687926 5.86667645630952
