80   
   
Al 6.9848724975 2.32801656 6.9578564725000005
In 2.3259324175 6.96509062 6.9780436225
In 6.9621785775 6.984088265 2.3178031575
Al 6.974135782499999 6.975940905 6.965872822500001
In 2.3139752125 6.97323798 2.3299739575
Al 6.972915292499999 2.33616392 2.3097868075
Al 2.3366691324999995 2.317166275 6.9700272725
Al 2.3247119275 2.325313635 2.3219576075000004
Ga 6.9742556341199995 4.339993557040001 4.637284703200001
Al 2.30335834912 8.98521497704 0.0094021882
Al 6.960838235879999 4.9802586279600005 -0.0096947382
Al 4.643242407559999 6.97514346298 4.331854652780001
Al 0.01773296256 2.30822147298 8.98407876778
In -0.00333477756 6.96318513702 4.976162927220001
In 4.339324628679999 4.64581577062 6.968777661900001
Al 8.986307503679999 0.01688907062 2.3005208469
Al 4.98221700132 -0.00063293562 6.959106083100001
Al 2.32459207588 4.961260982960001 4.650545726800001
Al 6.971574950879999 0.33233428296 -0.0177110882
Al 2.31409506412 4.33729063204 0.0013858382
Al 4.65560530244 2.32611107702 4.955975777220001
Al -0.01529198256 6.97133249702 0.3280932622200001
Al 0.00577575756 2.31636883298 4.33600910278
Al 4.95952308132 4.65543876938 2.3190527681
Al 0.33401363632 -0.01148322062 6.971276883100001
Al 4.33810413868 0.00603878562 2.3126916469000003
Ga 2.33532879088 0.31333663796 4.642529376800001
In 4.64364809744 2.33425843702 0.30790611222
Al 0.31131971632 4.64458848438 2.3312235681000004
In 6.963518919119999 8.987917902039998 4.645301053200001
Al 4.65519961256 6.96699610298 8.97992431778
Al 8.98752799368 4.65666605562 6.956606861900001
O 5.77106391443 3.63744185487 6.089444394180001
O 3.53368549331 8.27709465571 7.85097692222
O 8.17149125149 5.67772637749 1.4385410417800002
O 5.77087861577 5.6608734619300005 7.84061371682
O 6.09447982259 5.7712905262 3.62876266243
O 7.8593151160299985 3.53621918776 8.26840825863
O 1.44590670717 8.17380865164 5.671660338370001
O 7.847417629209998 5.771817984399999 5.65074481557
O 3.63563539555 6.09645893711 5.764606270200001
O 8.274062297309996 7.85883950863 3.5243761786000003
O 5.67920652429 1.44902868917 8.168279677200001
O 5.65821505785 7.848809215089998 5.762313949
O 3.5277837955699995 5.66381268513 3.19838603582
O 5.76516221669 1.02415988429 1.4368535077800002
O 1.12735645851 3.62352816251 7.84928938822
O 3.5279690942299995 3.64038107807 1.4472167131800002
O 3.2043678874099992 3.5299640138 5.659067767570001
O 1.43953259397 5.765035352239999 1.01942217137
O 7.852941002829998 1.1274458883599998 3.61617009163
O 1.45143008079 3.5294365556 3.637085614430001
O 5.663212314449999 3.2047956028899995 3.5232241598000003
O 1.02478541269 1.44241503137 5.763454251400001
O 3.61964118571 7.85222585083 1.1195507528000002
O 3.64063265215 1.45244532491 3.5255164810000004
O 1.10016662943 8.28266327487 1.46156187918
O 8.18066836831 3.64816795571 3.18272010722
O 3.54598180649 1.01080438749 6.090765156780001
O 1.1214547607699998 1.01024619193 3.19669850182
O 1.46897037759 1.1043685361999998 8.280986777430002
O 3.18841783103 8.181440607759999 3.640525743630001
O 6.092889582169999 3.54488195164 1.00340352337
O 3.1979937742099995 1.1211907143999995 1.00682960057
O 8.282618270549998 1.46753223711 1.0963494552000002
O 3.64855285231 3.1919175186299995 8.1766002936
O 1.00830923929 6.09425010917 3.540397162200001
O 1.00879120285 3.1981819450899995 1.118398734
O 8.198681080570001 1.01859126513 7.82626855082
O 1.11817934169 5.65308658429 6.105110322780001
O 5.75286590351 8.29045015251 3.19706527322
O 8.17739294923 8.29100834807 6.091131928180001
O 7.82987733241 8.196886003799998 1.0068436525700002
O 6.11042987897 1.1198139322399998 5.64730468637
O 3.20595812783 5.75637258836 8.284426906630001
O 6.100853935789999 8.180063825599998 8.28100082943
O 1.01622943945 7.83372230289 8.191480974800001
O 5.65029485769 6.10933702137 1.1112301364
O 8.290538470709999 3.20700443083 5.747433267800001
O 8.290056507149998 6.10307259491 8.169431696
