80   
   
Al 1.6224558102800002 7.37174942099 6.455315012419999
Al 6.67056694528 7.354387355990002 6.43779823242
Ga 3.4838041257799994 1.28075505427 1.8152757311
Al 8.531915260780002 1.2633929892700002 1.7977589510999998
Al 0.96572121954 3.03822960205 1.82126854314
In 6.013832354540001 3.02086753705 1.80375176314
Al 4.14053871652 5.61427487321 6.449322200379999
In 9.18864985152 5.596912808210001 6.431805420379999
Al 0.923067393705 5.693457205485001 -0.01214416846
Al 5.971178528705001 5.676095140485001 -0.02966094846
Ga 4.170596366295 2.9535502645150005 4.62400044846
In 9.218707501295 2.9361881995150005 4.606483668459999
Al 1.641100354875 1.369270867255 4.63527797878
Al 6.689211489875 1.351908802255 4.61776119878
Al 3.484533395125 7.291688392744998 9.26270638122
In 8.532644530125001 7.274326327745 9.245189601220002
Al 0.8809077195900001 0.27074282049 9.27348840348
Al 5.92901885459 0.25338075549 9.25597162348
Al 4.24466209043 8.39018853593 4.60592370036
Al 9.29277322543 8.37282647093 4.58840692036
Al 1.70759676573 4.5896163668300005 4.62070612156
Ga 6.75570790073 4.572254301830001 4.60318934156
Al 3.4179730442900005 4.07131498959 9.258705982279999
In 8.466084179289998 4.053952924590001 9.24118920228
Al 3.4877586275150003 1.358297845685 7.2940343208
Ga 8.535869762515 1.3409357806850002 7.276517540799999
Ga 1.624255906745 7.296717951775 2.6480594771199994
Al 6.672367041745 7.279355886775 2.63054269712
Al 4.142811895065 5.677761702235001 2.6418476094
Al 9.190923030065 5.660399637235002 2.6243308293999994
Al 0.969202639195 2.9772540952250006 7.30024618852
Al 6.017313774195 2.959892030225 7.28272940852
O 4.233214076455 5.789862141745001 8.268831699199998
O 9.281325211454998 5.7725000767450005 8.251314919199999
O 0.885578095685 2.868111435195 3.64192125168
O 5.933689230685 2.850749370195 3.62440447168
O 3.404843707125 1.456932633015 3.63538080044
O 8.452954842125 1.4395705680150002 3.61786402044
O 1.713948465015 7.201040943925 8.275372150439999
O 6.762059600014999 7.183678878925 8.257855370439998
O 2.6706335782550004 0.077577134545 5.831655034
O 7.718744713255 0.060215069545 5.814138254
O 2.431278439165 8.573029897275 1.17602229064
O 7.479389574165 8.555667832275 1.15850551064
O 4.941082409005 4.391485130295 1.173862953
O 9.989193544005 4.374123065295 1.156346173
O 0.160829608415 4.259121901525001 5.83381437164
O 5.208940743415 4.241759836525 5.81629759164
O 0.104042465825 7.161092275895 1.1120363055199998
O 5.152153600825 7.143730210895 1.09451952552
O 4.997358031755 1.4892915272849998 5.747062969839999
O 10.045469166755002 1.471929462285 5.72954618984
O 2.4778558792749994 2.8312111803450004 5.75371294892
O 7.525967014275 2.8138491153450005 5.73619616892
O 2.6235446183050004 5.819172622835001 1.10538632644
O 7.671655753305 5.801810557835001 1.08786954644
O 4.95184984789 7.22094900424 5.89609143658
O 9.99996098289 7.203586939240001 5.87857465658
O 0.15063762935 1.4299091598 1.2787361935
O 5.19874876435 1.4125470948 1.2612194135
O 2.67971969395 2.8929850461 1.2676503369
O 7.727830828950002 2.8756229811000003 1.2501335569
O 2.42276778329 5.757873117940001 5.907177293179999
O 7.47087891829 5.7405110529400005 5.88966051318
O 1.855080628175 1.477571463475 8.033135893099999
O 6.903191763175 1.4602093984750002 8.015619113099998
O 3.261985164505 7.179648716805 3.37616614146
O 8.310096299505 7.162286651804999 3.3586493614599995
O 0.733198776205 5.803146766905001 3.38711508826
O 5.781309911205 5.785784701905 3.36959830826
O 4.383867016475 2.854073413375 8.022186946299998
O 9.431978151475 2.836711348375 8.004670166299999
O 4.249023467490001 0.0066993183 8.34285755294
O 9.29713460249 -0.0106627467 8.32534077294
O 0.8702162845100001 8.6514695837 3.69790119106
O 5.91832741951 8.6341075187 3.68038441106
O 3.37954717227 4.331406518480001 3.6959609091
O 8.42765830727 4.31404445348 3.6784441291
O 1.7396925797300002 4.32676238352 8.344797834899998
O 6.787803714730001 4.30940031852 8.3272810549
