40   
   
Al 0.9488655688 5.751850128999999 -0.01593397248
Ga 4.2241042262 2.974680486 4.65713284248
Ga 1.6672628700399998 1.38118610024 4.673138584559999
Al 3.50570692496 7.34534451476 -0.03193971456
Ga 3.53450159817 1.3656792090499998 7.352486167239999
Ga 1.66546207941 7.37148791869 2.66606107552
Ga 4.20136023677 5.72732037765 2.65643140284
Ga 0.99860344081 3.0098467500900004 7.362115839919999
Ga 1.66991769187 7.449188445749998 6.506963347599999
Ga 3.5215810051099994 1.28464319019 1.82530740196
Ga 0.98658849959 3.0688177334699995 1.83466135272
Ga 4.20491019739 5.66501390247 6.497609396839999
Ga 0.90427799649 0.27545216565 9.35400501882
Ga 4.31562541317 8.469571898329999 4.6366601857
Ga 1.7442936275699998 4.63596547673 4.6570774785
Ga 3.47560978209 4.10905858725 9.33358772602
O 4.30183818175 5.843090706469999 8.33299609352
O 0.90809536187 2.89800488939 3.67161013012
O 3.44535199699 1.46384785171 3.66156687456
O 1.76458154663 7.2772477441499985 8.343039349079998
O 2.70383751159 0.07299418255 5.87896774288
O 2.4812654222700004 8.658317304029998 1.17922743404
O 5.00040902059 4.42402022155 1.17469861688
O 0.18469391327 4.307291265029999 5.883496560039999
O 5.027520202699999 7.286194438619998 5.93757298706
O 0.15842922922 1.44545059714 1.28924983918
O 2.71447814002 2.91643885594 1.27348535378
O 2.4714712919 5.81520617982 5.95333747246
O 0.12889401835 7.238356535789999 1.1189161066
O 5.05545647279 1.49265846263 5.78938782648
O 2.51774701175 2.85681199919 5.799568943
O 2.6666034793899995 5.87420299923 1.10873499008
O 1.88886834494 1.49164662738 8.100667200759998
O 3.3185257045000003 7.24844832094 3.3980560749199995
O 0.7630428261 5.86496443854 3.41364823412
O 4.44435122334 2.8751305097800004 8.085075041559998
O 4.300006380159999 -0.00230412944 8.4099052137
O 0.91058555084 8.743659152439998 3.7258558483
O 3.42882349732 4.36935506772 3.72160275306
O 1.78176843368 4.37199995528 8.414158308939998
