40   
   
In 3.0535956111781526 1.7734669684390194 0.6186871865309472
In -0.0786080772265806 0.0629653939476566 14.02374987372174
Ga -1.5493935213218468 4.423678385939019 2.4099689690309467
Ga -0.0160762463218466 1.7769813459390196 2.430758189030947
Ga 1.510025108678153 4.428376885939019 2.427082739030947
Ga 3.033089156178153 1.7898927234390196 4.277056731530946
Al 4.546912351048428 0.9229147076133234 7.338332299747312
In 3.013595076048428 3.569611747613324 7.317543079747313
Al 1.4874937210484274 0.9182162076133236 7.321218529747312
Ga -0.0273419397265806 0.0219010064476566 4.877826011221738
Ga -0.0581016222265806 0.0465396389476566 10.365380328721738
Ga -0.0560767814515725 3.5731261251133235 9.129614082247311
In 1.4577465052734195 2.7061480564476565 12.190889651221738
Ga 2.99106378027342 0.0594510164476566 12.211678871221741
In -1.6016721247265806 2.7014495564476566 12.173775881221738
Ga 3.0023294736781527 1.8145313559390197 9.764611049030947
O 1.4578926509484276 2.692206961513323 1.2396648218473134
O -0.0140919330515722 5.233036119913323 1.2197071706473137
O -1.4791492338515726 2.687696401513323 1.2232356026473137
O 2.9822331477781527 1.83062859583902 13.349813203130946
O -0.0072456138265806 0.0058037665476566 1.2926238571217394
O -1.5495397588515727 4.437619533713323 13.361193797647312
O -0.0775551748515726 1.8967903753133235 13.381151448847312
O 1.3875021259484277 4.442130093713323 13.377623016847313
O -1.6312731948265802 4.475440310347656 6.092222173321739
O -0.0366232288265805 1.7228753887476564 6.113842962121739
O 1.5505221803734204 4.480326750347656 6.110020494121739
O -0.0249069698515725 3.5481589775133235 3.5688923738473126
O 3.0224257995781527 1.7984341160390196 6.179408894930947
O 4.628792025373419 0.8711527825476565 3.6560789491217385
O 3.034142059373419 3.6237177041476567 3.6344581603217394
O 1.4469966501734195 0.8662663425476564 3.638280628321739
O 4.465032768578154 0.9746765798390196 11.020585651130947
O 2.993048184578154 3.51550573823902 11.000627999930945
O 1.5279908837781535 0.9701660198390196 11.004156431930946
O -0.0474382656265806 0.0379982463476566 8.463028165321738
O -0.0667401380515725 3.5816675177133237 11.031966245647313
O 1.539626178778153 2.65438613203902 8.508636446930945
O 3.0116107627781528 0.1135569736390198 8.528594098130947
O 4.4766680635781535 2.65889669203902 8.525065666130947
