80   
   
In 1.6470417945 7.486889734619998 6.540899703009999
Al 6.779088744500001 7.4723889746199985 6.521355968009999
Al 3.54155077858 1.3031335732599998 1.83871251963
Al 8.67359772858 1.2886328132599998 1.81916878463
Ga 0.9805032827 3.08539891886 1.84469709115
Ga 6.1125502327 3.0708981588599995 1.82515335615
Al 4.20808929038 5.70462438902 6.534915131489999
Al 9.34013624038 5.69012362902 6.515371396489999
In 0.93484528653 5.77938380636 -0.015835163985
Al 6.06689223653 5.76488304636 -0.035378898985
Al 4.239683133470001 3.00300574364 4.685542968985
Ga 9.371730083470002 2.98850498364 4.665999233985
In 1.6691270834300005 1.39341080844 4.698764650645
In 6.801174033430001 1.37891004844 4.679220915645
In 3.54109715657 7.408353761559998 9.386944214355
Al 8.673144106570001 7.393853001559998 9.367400479355
Al 0.8985830185800001 0.2805356012999999 9.40273924176
Al 6.03062996858 0.2660348412999999 9.383195506760002
Al 4.31156982978 8.52119021866 4.664137621119999
Al 9.44361677978 8.506689458659999 4.64459388612
Al 1.7347075883800005 4.66207136666 4.68215904422
Al 6.86675453838 4.64757060666 4.66261530922
Al 3.4754452599800003 4.1396544533 9.384717818659999
In 8.60749220998 4.125153693299999 9.36517408366
Al 3.5474122400100003 1.38490595974 7.3940617843149985
Al 8.67945919001 1.37040519974 7.374518049314998
In 1.64760558067 7.40860485174 2.6804306291249995
Al 6.77965253067 7.394104091739998 2.6608868941249995
In 4.209047213510001 5.76693475094 2.674146073765
In 9.34109416351 5.75243399094 2.654602338765
Al 0.98597060717 3.02657606054 7.400346339675
Al 6.11801755717 3.01207530054 7.380802604675
O 4.302823140449999 5.88391943602 8.379744115954999
O 9.43487009045 5.86941867602 8.360200380954998
O 0.8997621940700001 2.9136988797 3.690940522205
O 6.031809144070001 2.8991981197 3.671396787205
O 3.46179503235 1.4829216461 3.684205991085
O 8.593841982350002 1.4684208861 3.664662256085
O 1.7407903021700002 7.314696669619998 8.386478647075
O 6.87283725217 7.300195909619998 8.366934912075
O 2.7169990215700004 0.08365881378 5.912235464955
O 7.84904597157 0.06915805378 5.892691729955
O 2.46673891999 8.703729491379999 1.186800613525
O 7.598785869990001 8.689228731379998 1.167256878525
O 5.020889019070001 4.46104736178 1.186065759205
O 10.15293596907 4.44654660178 1.1665220242049998
O 0.16284892249 4.32634094338 5.912970319275
O 5.29489587249 4.31184018338 5.893426584275
O 0.10167185259 7.269143581619998 1.123537557505
O 5.23371880259 7.254642821619998 1.103993822505
O 5.08149495585 1.5179347232199998 5.824842504015
O 10.21354190585 1.5034339632199998 5.805298769015
O 2.51926504909 2.87841433442 5.831727027055
O 7.65131199909 2.86391357442 5.812183292055
O 2.66390175935 5.90866397042 1.116653034465
O 7.79594870935 5.89416321042 1.0971092994649998
O 5.031692591160001 7.335580862039999 5.972756759209999
O 10.16373954116 7.32108010204 5.953213024209999
O 0.15268787516 1.45215619348 1.29576733835
O 5.28473482516 1.43765543348 1.27622360335
O 2.72289905536 2.93873028948 1.28280814255
O 7.854946005360001 2.92422952948 1.26326440755
O 2.46148141096 5.84900676604 5.98571595501
O 7.593528360959999 5.83450600604 5.96617222001
O 1.88776923427 1.5053684689599998 8.144014301324999
O 7.01981618427 1.4908677089599998 8.124470566325
O 3.3128885259700005 7.291203595679998 3.418206279595
O 8.44493547597 7.276702835679998 3.398662544595
O 0.7429236813700002 5.89250152768 3.430977985495
O 5.87497063137 5.87800076768 3.411434250495
O 4.457734078870001 2.9040705369599995 8.131242595424998
O 9.58978102887 2.88956977696 8.111698860424998
O 4.32254212176 0.01410208544 8.458043642549999
O 9.45458907176 -0.00039867456 8.43849990755
O 0.8805429542400001 8.78378748056 3.74446501045
O 6.01258990424 8.769286720559998 3.72492127545
O 3.434298916360001 4.40051010616 3.74403013997
O 8.566345866359999 4.38600934616 3.72448640497
O 1.7687861596400003 4.397379459840001 8.45847851303
O 6.900833109640001 4.38287869984 8.43893477803
