40   
   
Al 0.0261834505945119 3.4876443332469287 14.07885741064206
Al 1.5138306434178337 2.612310248349522 2.444621908978432
Ga 3.0206018684178337 -0.0006739716504778 2.443984893978432
Ga -1.5025462015821662 2.6137936633495222 2.4495586789784323
In 3.017321673487654 1.740011575903549 -0.0061576833704919
Al 3.026827975987654 1.7418328234035487 5.5039159503795085
Al 0.0073937909178338 0.0014165258495222 4.285612875228432
Ga -1.4931513265123462 4.356907540903548 7.346180946629508
Al 0.0136198984876536 1.7439233209035492 7.345543931629509
In 1.5232255184876544 4.355424125903548 7.341244176629507
Al 0.0198459155945119 3.4864301682469288 10.405474988142057
Al 3.0331655109876534 1.743046988403549 9.177298372879507
In 4.546162753094511 0.8725696157469286 12.23659241439206
In 3.0393915280945114 3.485553835746929 12.237229429392059
Ga 1.5297859080945124 0.8740530307469286 12.241529184392057
In 0.0169000934178338 0.0032377733495222 9.795686508978433
O 4.466883817787654 0.9037947488035492 1.2410087290795082
O 3.0203834417876534 3.4122596000035488 1.2416202634795082
O 1.5711620465876537 0.9052188272035492 1.245748028279508
O 0.0231108777178338 0.0044276550495222 13.395601283028434
O 0.0041288287945119 3.483419039046929 1.2954865803420597
O 1.5931096691876536 2.581085063003549 13.440205594179508
O 3.0396100451876538 0.0726202118035491 13.439594059779509
O 4.488831440387653 2.579660984603549 13.435466294979507
O 1.4599017573945123 2.6483920936469287 6.14256776684206
O 0.0134013813945122 5.156856944846929 6.14317930124206
O -1.4358200138054875 2.6498161720469287 6.14730706604206
O 3.0235324577876534 1.7412014576035493 3.593757090679508
O 0.0106893091178338 0.0020478916495222 6.1957717349284325
O -1.439222531205488 4.320825747846929 3.648234941942059
O 0.0072778447945123 1.812360896646929 3.64762340754206
O 1.456499239994512 4.319401669446929 3.6434956427420593
O -1.547080212282166 4.392989386249521 11.044126951428431
O 0.0199618617178338 1.6754857974495223 11.043464455828433
O 1.5899517065178344 4.3914466346495225 11.038992710628433
O 0.0165503973945119 3.485798802446929 8.49531612844206
O 3.036461029187654 1.743678354203549 11.087457232579506
O 4.600091639117832 0.8364877704495223 8.538646556528434
O 3.0330495651178326 3.5539913592495225 8.539309052128432
O 1.463059720317834 0.8380305220495222 8.543780797328433
