40   
   
In 4.420501541922795 0.8435518352607322 2.4268149713279903
Al 2.9447645319227957 3.402369365260732 2.4275410113279903
Al 1.466653986922796 0.8449609002607321 2.41327393132799
In 1.425575003077204 4.227622529739266 12.039287288672009
Al -1.5282725519227962 4.229031594739267 12.025746248672007
Al -0.052535541922796 1.6702140647392674 12.025020208672007
Al 0.0 0.0 0.0
Al -0.0239970375 -0.0158375625 5.4090101475
Al -0.0399950625 -0.0263959375 9.0150169125
Al -0.0170820355772044 3.398499242760732 4.21700335382799
In 2.909311025577204 1.674084187239267 10.235557866172009
Al 2.921851505 -0.022525815 7.22555457
Al -1.50773306 2.53770078 7.21273957
In 1.4461144949999998 2.536291715 7.22628061
Al -0.0410790730772044 3.382661680260732 9.626013501327993
Al 2.933308063077204 1.6899217497392671 4.82654771867201
O -1.5394462877 4.2947727021 1.2315951801
O -0.0046797973000001 1.6336024709 1.2308400985
O 1.5325551694999997 4.293307274499999 1.2456778617000002
O 1.3596738205 0.7792761555 13.2068833583
O 4.4316752777 0.7778107278999999 13.2209660399
O 2.8969087873 3.4389809591 13.221721121500002
O -0.0567571375772044 3.372314472760732 13.15990013102799
O 2.948986127577204 1.7002689572392675 1.2926610889720098
O 4.3453357953772045 0.8670593918392676 6.05669081877201
O 2.9286282657772045 3.323524220639268 6.0573878171720095
O 1.5096421425772042 0.8684120942392677 6.04369142037201
O 1.382586847422796 4.204171335760733 8.40886979962799
O -1.453106805377204 4.205524038160733 8.39587040122799
O -0.0363992757772041 1.7490592093607322 8.395173402827991
O -0.0156780645 -0.0103472075 3.5338866297
O -0.0483140355 -0.0318862925 10.8901404303
O -0.0254010085772044 3.393008887760732 6.0921268716279915
O 2.917629998577204 1.6795745422392674 8.36043434837201
O 1.5212803307772036 2.512784107639268 3.5964046185720098
O 2.937987860377204 0.0563192788392677 3.5957076201720097
O 4.356973983577204 2.511431405239268 3.6094040169720096
O -1.464744993577204 2.561152024760732 10.84315720302799
O 1.370948659222796 2.559799322360732 10.85615660142799
O -0.045758870377204 5.016264151160732 10.856853599827993
