40   
   
Al -0.04337116 0.06311232375 12.29319846125
Ga -0.00619588 0.00901604625 1.75617120875
Al -0.0393680189224181 3.4346126093200096 11.104906554894765
Al 2.914832628922418 1.7041178606799907 2.9287182751052363
Al 2.925222775 0.00033565 0.01052167
Al -1.46270695 2.5329654 -0.01839409
Al 1.462515825 2.53330105 -0.00787242
Al -1.479292976077582 4.245763656929992 4.655973723855237
Al -0.0165860260775823 1.7127982569299909 4.674367813855236
Al 1.4459297989224178 4.246099306929991 4.666495393855236
Ga 1.429534811077582 0.8926311630700092 9.367129436144765
Al 4.354757586077582 0.8929668130700092 9.377651106144764
Ga 2.8920506360775815 3.4259322130700096 9.359257016144765
In -0.0269762594180885 3.4165805175412927 7.592564277888461
Al 2.902440869418088 1.7221499524587067 6.44106055211154
In -0.02478352 0.036064185 7.024684835
O 4.283777542522417 0.9448874833799908 12.913023784005235
O 2.8795788705224177 3.3765342673799914 12.895365457605235
O 1.475563678522418 0.9445652593799908 12.902922980805235
O 1.3999009314775823 4.194165210620009 1.1307018491947638
O -1.408312932522418 4.19384298662001 1.120601045994764
O -0.0041142605224179 1.7621962026200093 1.1382593723947638
O -0.0369274448 0.05373563565 10.46678040415
O -0.0126395952 0.01839273435 3.5825892658500003
O -0.0458117346180885 3.4439892981412927 12.931324752488463
O 2.921276344618088 1.694741171858707 1.1023000775115397
O 1.4839289158180882 2.5535086997587078 10.50612471321154
O 2.888127587818088 0.1218619157587071 10.523783039611539
O 4.292142779818088 2.553830923758708 10.51622551641154
O -1.416678169818088 2.5848995462412927 3.5173993135884603
O 1.3915356941819117 2.5852217702412927 3.5275001167884605
O -0.0126629778180883 5.0168685542412925 3.50984179038846
O -1.5502731064 4.29768437645 8.191346120149998
O -0.0290578784000001 1.6634003604500005 8.21047597375
O 1.4919585796 4.29803345245 8.202288656949998
O 1.3835060304 0.84069701755 5.83133617305
O 4.4257377164 0.84104609355 5.84227870985
O 2.9045224884 3.4753301095500007 5.82314885625
O -0.0205325437224181 3.407203828720009 5.766146080294765
O 2.8959971537224174 1.7315266412799908 8.267478749705237
