40   
   
Al 6.640358617717417 -0.2727014093785583 13.002956840550056
In 4.813534835 -0.10301898 -0.415228035
Al 8.617141842282582 1.2677892306285583 1.6346921481999417
Al 3.8036070072825816 1.3708082106285584 2.0499201831999407
Al 4.272674195 -0.14254193625 4.94368642125
Al 1.1838422522825818 -0.0650797381214417 4.029635276949942
Al -0.72114752 -0.052697275 7.145219275
Al 7.541793017717418 -0.2068298156285583 4.071432746800058
Al 1.718330355 1.370016355 6.951809
Al 6.53186519 1.266997375 6.536580965
Al 7.000932377717417 -0.2463527718785583 9.430347203050058
Al 3.912100435 -0.16889057375 8.51629605875
Al 2.0071106627174173 -0.1565081106285583 11.631880056800057
Al 0.6429816122825818 -0.1046026943714417 9.38854973319994
Ga 4.4465885377174175 1.266205519371442 11.438469781800055
In 9.260123372717416 1.1631865393714418 11.023241746800055
O 3.1506086094000003 -0.07901144315 0.93233221295
O 0.2896193274825818 -0.1304243591214417 12.889707177949939
O 5.4925073694 1.28679364165 0.7466583489499999
O 10.308659040999999 1.30171251125 0.3325666133500001
O 7.895155302517417 -0.1810081508785583 0.5702753020500584
O 5.034166020599999 -0.23242106685 12.52765026705
O 7.5712230106 1.24720110835 12.326503581050002
O 2.755071339 1.23228223875 12.74059531665
O 5.878866792117417 -0.1828222787785583 5.418992994750059
O 4.4601725502 -0.12884064475 3.08592940975
O 8.220765552117417 1.1829828060214418 5.233319130750059
O 3.4098475537174173 1.4039396356214418 5.6496834651500585
O 0.996343897082582 -0.0787810296214417 5.887392288449941
O 9.204719243317417 -0.2308373524785583 2.723872498850058
O 11.741776233317417 1.2487848227214418 2.522725812850058
O 6.9256245617174175 1.2338659531214418 2.9368175484500583
O -1.019944613317418 -0.0805951575214417 10.736109981149939
O 7.188430732917417 -0.2326514803785583 7.5725901915500575
O 1.3219541466825822 1.2852099272785584 10.550436117149939
O 6.138105818282582 1.3001287968785584 10.13634438154994
O 3.7246020798 -0.18259186525 10.37405307025
O 2.305907837882581 -0.1286102312214417 8.040989485249941
O 4.8429648278825805 1.3510119439785584 7.839842799249943
O 9.65388282628258 1.1300551143785584 7.423478464849943
