80   
   
Al 7.034754885 2.34433415 7.0110851300000006
In 2.34261688 7.01675759 7.029378425
Al 7.01447836 7.034139525 2.33623059
In 7.025078625 7.026527685 7.0185832050000005
Al 2.332016615 7.02436943 2.34702581
Al 7.02415462 2.35194599 2.328732515
In 2.35229314 2.334564055 7.02188035
Al 2.341692875 2.342175895 2.339527735
Al 7.02527460818 4.37084767712 4.6731479909
Al 2.3225363381800004 9.05088295712 0.0090886709
Al 7.01335837182 5.01523783788 -0.0081848859
Al 4.67782680198 7.02596616262 4.364404529680001
Al 0.01564158198 2.32639069262 9.05005428968
Al -0.00319330698 7.01516085738 5.01199970532
Al 4.370278483840001 4.67988150354 7.02096585246
Al 9.05181622384 0.01506990354 2.32031994246
Al 5.01676954116 -0.00098329854 7.01199962754
Al 2.34149689182 4.9978559028800005 4.6849629491
In 7.02303463182 0.33304430288 -0.0156829609
In 2.3322125981800004 4.36868942212 0.0015905959
Al 4.68894469802 2.34273741738 4.993706410320001
In -0.01379357198 7.02277269738 0.32964709032
Ga 0.00504131698 2.33400253262 4.36770167468
In 4.996493016160001 4.68882207646 2.33714508754
Al 0.3343077961600001 -0.01075339354 7.02279484754
Al 4.369354478840001 0.00529980854 2.33111516246
In 2.35117315182 0.31566236788 4.6774648741
Al 4.67834443302 2.35034925738 0.31135379532
Al 0.3140312711600001 4.67905198146 2.34794030754
Al 7.01559834818 9.05304121212 4.6806460659
Al 4.68842706698 7.01835432262 9.04675714468
In 9.05274022884 4.68965159854 7.01017063246
O 5.81259327616 3.66360352809 6.1357240527300005
O 3.5593210782000004 8.338245365650002 7.908968416569999
O 8.232654269200001 5.71773219875 1.45102708403
O 5.81236012644 5.702177857509999 7.89955779667
O 6.139680654270001 5.81278588916 3.65673402929
O 7.91553114019 3.56139470808 8.33142856557
O 1.4568089696100002 8.23443767012 5.71293398843
O 7.904907985930001 5.81314068264 5.69418076671
O 3.66213416007 6.1412394506100005 5.80751285496
O 8.33586950411 7.9151679979699985 3.55200765596
O 5.7188758786900005 1.45934752023 8.230131423839998
O 5.700049207130001 7.906003981189999 5.80562541524
O 3.5541782238400006 5.705100051909999 3.22238688727
O 5.8074504218 1.03045821435 1.44914252343
O 1.1341172308 3.65097138125 7.90708385597
O 3.5544113735600003 3.66652572249 1.45855314333
O 3.22709084573 3.55591769084 5.70137691071
O 1.45124035981 5.80730887192 1.02668237443
O 7.909962530390001 1.13426590988 3.64517695157
O 1.46186351407 3.55556289736 3.66393017329
O 5.7046373399300006 3.22746412939 3.5505980850400003
O 1.03090199589 1.45353558203 5.80610328404
O 3.64789562131 7.909356059769999 1.12797951616
O 3.66672229287 1.46269959881 3.55248552476
O 1.10985500616 8.34363880809 1.47166473273
O 8.240858818199998 3.67343376565 3.20832250657
O 3.5704690492000006 1.0181567287500002 6.13667684403
O 1.1289743764400002 1.0178260675100002 3.22050232667
O 1.47749543427 1.11321041916 8.34238378929
O 3.21279287019 8.24142998808 3.66736924557
O 6.13834670961 3.56962607012 1.01228807843
O 3.22152223593 1.1287888926399998 1.01512529671
O 8.343671900070001 1.47642785061 1.10686694496
O 3.67368428411 3.21559252797 8.237657415960001
O 1.0161376086900002 6.13938280023 3.5660721038400003
O 1.0166634571300002 3.22165219119 1.12656994524
O 8.25691649384 1.02506477191 7.886446207269999
O 1.1259126818 5.69526981435 6.14978843343
O 5.796302450800001 8.35054685125 3.22143409597
O 8.237797123560004 8.350877512489998 6.13760861333
O 7.88927606573 8.25549316084 1.01572715071
O 6.153978629810001 1.12727359192 5.69074169443
O 3.22842479039 5.799077509879999 8.345822861570001
O 6.14524926407 8.23991468736 8.342985643289998
O 1.02309959993 7.89227572939 8.251243995039998
O 5.69308721589 6.15311105203 1.12045352404
O 8.35063389131 3.22932077977 5.79203883616
O 8.350108042869998 6.14705138881 8.231540994759998
