40   
   
In 1.8401162078905504 0.00945848176466 0.7342584837276505
In 9.77704900210945 0.01993951823534 14.884036636272349
In 10.03323834039055 1.66851189676466 3.1082732687276504
Ga 4.60896786539055 1.63557763676466 2.77428872872765
In 5.7125045725 0.019257815 5.940356805
In 2.0322722728905505 0.00034085176466 4.4718399937276505
In 0.38431213 -0.01823526 7.47516302
Ga 9.296658839609448 0.04273359323534 5.5400828612723485
In 3.057085755 1.61244271 7.646402509999999
In 8.481356229999998 1.64537697 7.98038705
Ga 9.584892937109448 0.02905714823534 11.14645512627235
Ga 5.9046606375 0.010140185 9.677938315
In 4.256700494609449 -0.00843592676466 12.68126134127235
In 2.32050637039055 -0.01333559323534 10.078212258727651
In 6.929474119609449 1.6222420432353402 12.85250083127235
Ga 12.353744594609449 1.6551763032353402 13.186485371272349
O 3.7538369851 0.0192953026 1.4978872006
O 2.5088193140905504 -0.02227087063534 13.74104213852765
O 6.3196996651 1.5847461538 1.662277111
O 11.7408212111 1.746817281 1.9966014286
O 9.108345895909448 0.05166887063534 1.877252981472349
O 7.8633282249 0.0101026974 14.1204079194
O 10.6430127949 1.7060077861999998 14.298496989
O 5.2218912489 1.543936659 13.9641726714
O 7.62622534970945 0.02909463583534 6.70398552187235
O 5.6125834187 0.0239989826 3.9968144198
O 10.192088029709447 1.5945454870353402 6.86837543227235
O 4.76466862570945 1.69074809423534 6.534730669872348
O 2.1321934266905505 -0.00440031583534 6.415382378927651
O 10.967092329509448 0.05637255063534 4.37618020067235
O 13.746776899509449 1.75227763943534 4.55426927027235
O 8.325655353509449 1.59020651223534 4.21994495267235
O 0.6500728804905507 -0.02697455063534 11.242114919327648
O 9.484971783309447 0.03379831583534 9.202912741072348
O 3.215935560490551 1.53847630056466 11.40650482972765
O 8.637057106490552 1.70054742776466 11.74082914732765
O 6.0045817913 0.0053990174 11.6214807002
O 3.9909398602905513 0.00030336416466 8.914309598127652
O 6.770624430290551 1.6962084529646602 9.092398667727652
O 12.198043834290552 1.60000584576466 9.42604343012765
