80   
   
Al 6.9135910125 2.303887135 6.877341955
Ga 2.3027223325000006 6.888105189999999 6.902978204999999
Al 6.8849159775 6.91147131 2.289480685
Al 6.9005268525000005 6.901484415 6.887057505
Al 2.2871114575000004 6.898092084999999 2.305401385
Al 6.8979801375 2.31387403 2.279765135
Ga 2.3157864925000005 2.29050791 6.893262654999999
Al 2.3001756175000003 2.300494805 2.295685835
Al 6.9001418578800005 4.29504260746 4.5827506626
Al 2.27366230288 8.88924755746 0.0108100926
Ga 6.88275425712 4.93030273254 -0.0135048426
Ga 4.5927576155 6.90046735886 4.28359422124
Ga 0.0236281305 2.27950395886 8.887376191239998
Al -0.0029238255 6.88572991614 4.92478536876
Al 4.295505965140001 4.595086375199999 6.891242687599999
Al 8.890763770140001 0.0208552152 2.2680296176
Ga 4.933871539860001 -0.0006913302 6.879361922399999
Al 2.3005606121200004 4.90693661254 4.5999926774
Ga 6.895818417120001 0.33270545254 -0.0232203926
Al 2.2867264628800004 4.29165027746 0.0010945426
Ga 4.6079448545 2.30151186114 4.89914911876
Ga -0.0185347005 6.89571681114 0.32720854876
Ga 0.0080172555 2.28949085386 4.28979937124
Al 4.905196504860001 4.606892844799999 2.2915006524
Ga 0.33606701986 -0.0140705552 6.895282622399999
Al 4.292959250140001 0.0074759902 2.2839503176
Ga 2.3136247721200003 0.30933933254 4.5902771274
Ga 4.5923339795 2.31149875614 0.30157229876
Al 0.3073919848600001 4.5935136198 2.3074213524
Al 6.887077697880001 8.892639887459998 4.5924662126
In 4.6083684905 6.89048046386 8.881171041239998
Al 8.89331048514 4.608465600199999 6.8753219876
O 5.71154289968 3.59880850572 6.01987667994
O 3.49740225908 8.186228685199998 7.765923050259999
O 8.081094401320001 5.620305011799999 1.41825707574
O 5.71171661492 5.59960584728 7.752801544059999
O 6.02832767609 5.710764418509999 3.58646439684
O 7.77898384741 3.49896141771 8.173391569639998
O 1.4305361343900005 8.08378149289 5.611980676359999
O 7.76390851711 5.71144072089 5.585021707159999
O 3.5977004417200003 6.03012643551 5.701292070999999
O 8.18309961756 7.77699594739 3.4821875442
O 5.62352502744 1.4331693122099998 8.0753750422
O 5.5974310882800005 7.764656354889999 5.6980036926
O 3.4891595703200005 5.603170714279999 3.1628666600599997
O 5.70330021092 1.0157505347999998 1.41682028974
O 1.11960806868 3.5816742081999995 7.7644862642599985
O 3.4889858550800006 3.60237337272 1.4299417959399998
O 3.1723747939100004 3.49121480149 5.59627894316
O 1.42171862259 5.703017802289999 1.00935177036
O 7.77016633561 1.11819772711 3.57076266364
O 1.4367939528900002 3.49053849911 3.59772163284
O 5.603002028280001 3.171852784489999 3.481451269
O 1.01760285244 1.4249832726099998 5.7005557958
O 3.57717744256 7.768809907789999 1.1073682978
O 3.60327138172 1.4373228651099998 3.4847396474
O 1.08506334468 8.19301345572 1.44793610994
O 8.092660064080002 3.6119975252 3.14270998026
O 3.51196491632 0.9993416118 6.02203904574
O 1.11136537992 0.99861623728 3.1614298740599995
O 1.4591981910900005 1.08980101851 8.190246366839999
O 3.15250429241 8.093166367709998 3.60145099964
O 6.025793939390001 3.50955033289 0.98876760636
O 3.16355728211 1.11045111089 0.99365003716
O 8.192958246720002 1.45589527551 1.078079001
O 3.61397013256 3.1560325473899997 8.085969514199999
O 0.9970454724400002 6.02737426221 3.5034344722
O 0.9970798532800002 3.163666744889999 1.1066320226
O 8.115639125320001 1.00896576428 7.734807230059999
O 1.10804240592 5.5899816948 6.04003335974
O 5.688737553680001 8.202637608199998 3.1607042942599994
O 8.08933709008 8.20336298272 6.02131346594
O 7.74150427891 8.11217820149 0.99249697316
O 6.04819817759 1.1088128522899998 5.581292340359999
O 3.17490853061 5.692428887109999 8.193975733639999
O 6.03714518789 8.091528109109998 8.18909330284
O 1.0077442232800002 7.746083944489999 8.104664339
O 5.586732337440001 6.04594667261 1.0967738258
O 8.203656997560001 3.1746049577899997 5.6793088678
O 8.20362261672 6.038312475109999 8.0761113174
