60   
   
In -0.00382521293 0.00586375941 2.12765995747
Ga 5.35802372207 0.06476357441 2.13719591247
In -0.01666149793 0.02554080441 9.26745847247
Ga 5.34518743707 0.08444061941 9.276994427470001
In -0.02184735707 0.03349033059 12.15193707253
Ga 5.34000157793 0.09239014559 12.161473027529999
In -0.00901107207 0.01381328559 5.012138557529999
Ga 5.35283786293 0.07271310059 5.02167451253
In 2.6516167149587506 1.59609773917443 6.88801560377626
In 8.013465649958748 1.65499755417443 6.89755155877626
In 2.63878042995875 1.61577478417443 14.02781411877626
In 8.00062936495875 1.67467459917443 14.03735007377626
In 2.6592671408187503 1.58437022035443 2.63269568883626
Ga 8.02111607581875 1.64327003535443 2.64223164383626
In 2.64643085581875 1.60404726535443 9.772494203836262
Ga 8.008279790818749 1.66294708035443 9.782030158836257
In -0.0547823258187497 3.12743667464557 11.638849576163741
Ga 5.307066609181249 3.1863364896455697 11.648385531163742
In -0.0419460408187497 3.1077596296455696 4.49905106116374
Ga 5.31990289418125 3.1666594446455694 4.508587016163739
In -0.0471318999587497 3.1157091558255696 7.383529661223741
Ga 5.31471703504125 3.1746089708255694 7.39306561622374
In -0.0342956149587497 3.0960321108255697 0.24373114622374
Ga 5.3275533200412495 3.154931925825569 0.25326710122374
O 1.64503132948 0.02797966552 3.57283633164
O 7.00688026448 0.08687948052 3.58237228664
O 1.81365076792 3.2431758635599994 3.56432743612
O 7.175499702920001 3.30207567856 3.57386339112
O -0.8477791398999999 1.4308128434199998 3.56448223974
O 4.5140697951 1.4897126584199998 3.57401819474
O 0.7908340470800003 1.46863103144 10.70721782888
O 6.152682982080001 1.52753084644 10.71675378388
O -1.9095849801 3.2220942365799994 10.69752707026
O 3.4522639549000003 3.28099405158 10.70706302526
O 3.69114503552 0.07027423948 10.71629665336
O 9.05299397052 0.12917405448 10.72583260836
O 4.300473257368751 1.6182136452844298 8.333191977946258
O 9.66232219236875 1.67711346028443 8.342727932946259
O 1.83893531080875 0.16095703832443 8.33273484742626
O 7.20078424580875 0.21985685332443 8.34227080242626
O 1.8076627879887497 3.02104682318443 8.324837886046259
O 7.16951172298875 3.07994663818443 8.33437384104626
O 3.471948544968751 3.01951092120443 1.18797644518626
O 8.83379747996875 3.0784107362044306 1.19751240018626
O 3.50322106778875 0.15942113634443 1.19587340656626
O 8.86507000278875 0.21832095134443 1.20540936156626
O 1.01041059840875 1.56225431424443 1.18751931466626
O 6.3722595334087515 1.62115412924443 1.19705526966626
O 1.5940742165912498 3.1495525807555698 13.084025950333741
O 6.955923151591251 3.20845239575557 13.093561905333742
O -0.86746372996875 1.6922959737955698 13.08356881981374
O 4.494385205031249 1.7511957887955698 13.09310477481374
O -0.8987362527887496 4.552385758655569 13.075671858433742
O 4.46311268221125 4.611285573655569 13.08520781343374
O 0.7655495041912499 4.550849856675569 5.93881041757374
O 6.127398439191252 4.609749671675568 5.94834637257374
O 0.7968220270112503 1.69076007181557 5.946707378953741
O 6.158670962011249 1.74965988681557 5.95624333395374
O -1.69598844236875 3.0935932497155694 5.93835328705374
O 3.6658604926312495 3.1524930647155696 5.94788924205374
