40   
   
In -0.001910874070319 -0.0015495506658217 1.99588562647434
In -0.013031425929681 -0.0105673393341783 13.611172033525662
Ga -1.5330273298826291 4.559115709128959 5.0956082102952
In 0.0011249232582069 1.88224821791384 5.094950912635446
In 1.5522796116426962 4.54923655410466 5.098849543408954
In 1.6264501183573044 0.9297082258953396 10.516235006591048
In 4.71175705988263 0.9198290708710428 10.5194763397048
Ga 3.177604806741793 3.5966965620861613 10.520133637364552
Ga 0.0091025884871342 3.665406940162984 2.683440208576587
In 3.169627141512866 1.8135378398370168 12.93164434142341
Ga 0.0034135196439482 3.660793606112984 8.62560610454397
In 3.175316210356052 1.8181511738870164 6.989478445456032
In -0.00747115 -0.006058445 7.80352883
Ga 3.176168875 -0.010170095 0.00333679
In -1.57933286 2.75570093 0.000676655
In 1.596836015 2.7455308350000003 0.004013445
O 1.5913713179671751 2.743464751392402 3.937688036368076
O 0.013730713126665 5.496212947845907 3.9383639663322434
O -1.5813942920832629 2.75362394913561 3.9343548217385607
O 4.760124022083264 2.725320830864391 11.680729728261438
O 1.587358412032825 2.7354800286075984 11.677396513631923
O 3.164999016873335 -0.0172681678459071 11.676720583667757
O -0.0021622604162128 3.656272139293741 14.449443191097645
O 3.180891990416213 1.8226726407062588 1.165641358902355
O -0.003870795642696 -0.0031388745383928 4.043000795435323
O -0.011071504357304 -0.0089780154616072 11.564056864564675
O -1.4923343867676615 4.540508901814516 1.2996772547184954
O 0.0048955278656364 1.9280653994493469 1.2990357761970606
O 1.518718681283609 4.530867507745971 1.3028405788874418
O 1.6600110487163913 0.9480772722540298 14.31224397111256
O 4.671064116767662 0.9384358781854848 14.315407295281505
O 3.173834202134364 3.5508793805506538 14.31604877380294
O -1.7085178346293362 4.655764786517236 9.159995663171998
O -0.00339806139492 1.6805844025268273 9.159265115578528
O 1.720618916121364 4.644784688198904 9.16359821381362
O 1.4581108138786365 0.8341600918010974 6.451486336186379
O 4.8872475646293365 0.8231799934827654 6.455088886828004
O 3.18212779139492 3.798360377473174 6.455819434421471
O 0.0054245302848322 3.6624243587229848 6.525129000808256
O 3.173305199715168 1.8165204212770152 9.089955549191744
