80   
   
Ga 1.71697513511 7.719021553329998 6.7095513546
Al 7.01053141511 7.6986105133299985 6.6814497546
In 3.65727357463 1.34089928997 1.8821888098
In 8.950829854629998 1.32048824997 1.8540872098
Ga 1.01749986139 3.17974771729 1.890373853
Ga 6.311056141389999 3.15933667729 1.862272253
In 4.35674884835 5.88017312601 6.701366311399999
Ga 9.65030512835 5.85976208601 6.6732647114
In 0.9703629741599998 5.953014904120001 -0.0241374536
Ga 6.26391925416 5.93260386412 -0.0522390536
In 4.38360529084 3.0947226908800003 4.8041787536000005
Ga 9.67716157084 3.0743116508800004 4.7760771536
Ga 1.73044688092 1.4392336814400002 4.8235726192
Ga 7.02400316092 1.41882264144 4.7954710192
In 3.6749945940800006 7.639425863559999 9.6308312808
In 8.968550874079998 7.619014823559999 9.6027296808
Al 0.94177945323 0.29904260313 9.6590960166
Ga 6.23533573323 0.27863156313 9.6309944166
In 4.46355907535 8.77955509797 4.7759591582
In 9.75711535535 8.759144057969998 4.7478575582
Al 1.80152376815 4.80657804757 4.8027868542
In 7.095080048150001 4.7861670075700005 4.7746852542000005
In 3.60381476043 4.27201965353 9.6322683206
Ga 8.897371040429999 4.25160861353 9.6041667206
Al 3.67203950273 1.4316259748700002 7.5899147414
Ga 8.96559578273 1.41121493487 7.561813141400002
In 1.71147438481 7.633860819429999 2.743210691
Ga 7.0050306648100005 7.61344977943 2.715109091
Ga 4.35180290413 5.939855394670001 2.7345610334
Ga 9.64535918413 5.91944435467 2.7064594334
Al 1.03171098341 3.12563139963 7.598564399
Ga 6.32526726341 3.10522035963 7.570462799
O 4.45752156187 6.06694059373 8.5964828858
O 9.751077841870002 6.04652955373 8.568381285800001
O 0.93690464619 3.00510165397 3.7876074178
O 6.230460926189999 2.98469061397 3.7595058178
O 3.57806537463 1.5283607330500002 3.7782608386
O 8.871621654629998 1.5079496930500005 3.7501592386
O 1.81636083343 7.5436815146499985 8.605829465000001
O 7.10991711343 7.5232704746499985 8.577727865
O 2.81180577451 0.09020829949 6.070159389800001
O 8.105362054509998 0.06979725949 6.0420577898
O 2.55544257867 8.96550715861 1.205867461
O 7.84899885867 8.945096118609998 1.177765861
O 5.18550718551 4.59190618649 1.2058131698
O 10.47906346551 4.57149514649 1.1777115698
O 0.18174116767 4.463809271610001 6.070213681
O 5.475297447669999 4.443398231610001 6.042112081
O 0.11430814187 7.490008085169999 1.1461615938
O 5.40786442187 7.469597045169999 1.1180599938
O 5.25211663995 1.5652126217299998 5.9750754554
O 10.54567291995 1.5448015817299998 5.9469738554000005
O 2.6106785084699995 2.9695320413700004 5.9846543418
O 7.90423478847 2.9491210013700004 5.9565527418
O 2.75574627335 6.08568866553 1.1365827074
O 8.049302553349996 6.06527762553 1.1084811074
O 5.20713055444 7.558882869319999 6.120681519600001
O 10.500686834439998 7.538471829319999 6.0925799196
O 0.16104431652 1.4973891838800002 1.329483858
O 5.45460059652 1.4769781438800005 1.301382258
O 2.8137172711200003 3.0261405660800005 1.3104965300000002
O 8.107273551119999 3.00572952608 1.2823949300000002
O 2.55445759984 6.03013148712 6.1396688476
O 7.848013879839998 6.00972044712 6.1115672476
O 1.96144443154 1.55836692546 8.362916805999998
O 7.255000711539998 1.5379558854600002 8.334815206
O 3.43020222318 7.5120055369399985 3.4987579172
O 8.72375850318 7.491594496939999 3.4706563172
O 0.7778760223800001 6.073781031340001 3.5174548612
O 6.07143230238 6.053369991340001 3.4893532612
O 4.61377063234 2.99659143106 8.344219862000001
O 9.90732691234 2.97618039106 8.316118262
O 4.47177361446 0.01981881322 8.683404364000001
O 9.76532989446 -0.00059222678 8.655302764
O 0.92337321854 9.05265634178 3.836127016
O 6.216929498539999 9.032245301779998 3.808025416
O 3.5528830193000003 4.5342123671 3.8365373392
O 8.846439299299998 4.5138013271 3.8084357392
O 1.8422638137 4.5382627879 8.6829940408
O 7.1358200937000005 4.5178517479 8.654892440800001
