30   
   
Ga -0.00138363337 0.00400723133 2.05805491143
Ga -0.00602669837 0.01745431633 8.96427944643
In -0.00790249663 0.02288693867 11.75439415857
Ga -0.00325943163 0.00943985367 4.84816962357
Ga 2.5574795658347904 1.517631346579555 6.660971018767901
In 2.55283650083479 1.5310784315795547 13.5671955537679
Ga 2.5602468325747907 1.509616883919555 2.5448611959079006
Ga 2.5556037675747905 1.5230639689195549 9.4510857309079
Ga -0.0296661825747905 2.9926758860804448 11.260514354092098
Ga -0.0250231175747905 2.9792288010804446 4.354289819092099
Ga -0.0268989158347905 2.9846614234204454 7.144404531232099
Ga -0.0222558508347905 2.971214338420445 0.2381799962320991
O 1.58264919946 0.01860606546 3.45415112378
O 1.75526627926 3.1036993737 3.44821739166
O -0.8050132962200001 1.37326378834 3.44989476706
O 0.7753143707399999 1.3985933963 10.35715815834
O -1.81041492378 3.09044936166 10.35210787294
O 3.55407354054 0.04686772454 10.361670856220002
O 4.1415123986647915 1.5322301807095549 8.057067231117902
O 1.7742626984647905 0.1419248889495549 8.0582070189979
O 1.7538499029847905 2.886887903589555 8.0528108743979
O 3.34346369994479 2.885323341549555 1.1476251956779009
O 3.3638764954247904 0.1403603269095549 1.1530213402779008
O 0.9762139997447904 1.4950180497895549 1.1487649835579008
O 1.5543666502552098 3.0072747202104453 12.6566105664421
O -0.8128830499447903 1.616969428450445 12.657750354322099
O -0.8332958454247904 4.361932443090446 12.652354209722098
O 0.75631795153521 4.360367881050445 5.7471685310021
O 0.7767307470152096 1.6154048664104452 5.752564675602099
O -1.6109317486647905 2.9700625892904453 5.748308318882099
