80   
   
In -0.028170315 -0.0421349875 6.0921336925
In -0.084510945 -0.1264049625 18.2764010775
Al 4.877810665000001 2.8387426475 6.1336551425
Al 4.821470035000001 2.7544726725 18.3179225275
Ga 3.256258845 -0.0178529625 6.1072496975
In 3.1999182150000003 -0.1021229375 18.2915170825
In 1.593381505 2.8144606225000004 6.1185391375
In 1.5370408750000002 2.7301906475 18.3028065225
Ga 0.0 0.0 0.0
Al -0.05634063 -0.084269975 12.184267385
In 4.905980980000001 2.880877635 0.04152145
In 4.8496403500000005 2.7966076600000003 12.225788835
Ga 3.28442916 0.024282025 0.015116005
In 3.22808853 -0.05998795 12.19938339
Ga 1.62155182 2.8565956100000003 0.026405445
Al 1.56521119 2.7723256350000005 12.21067283
Ga -0.027858953316 1.8750459409435 3.0586305514205
Ga -0.084199583316 1.7907759659435 15.2428979364205
In -1.6907362933160004 4.707359525943501 3.0699199914205
In -1.7470769233160004 4.623089550943501 15.2541873764205
Ga 3.256570206684 1.8993279659435 3.0737465564205
Ga 3.200229576684 1.8150579909435 15.258013941420499
Ga 1.5936928666839991 4.7316415509435 3.0850359964205
In 1.5373522366839991 4.647371575943501 15.2693033814205
In 1.5930701433160002 0.8972796940565 9.1520422785795
Al 1.5367295133160002 0.8130097190565 21.336309663579495
Al -0.0698071966839998 3.7295932790565 9.163331718579501
Ga -0.1261478266839998 3.6453233040565 21.3475991035795
Al 4.877499303316001 0.9215617190565 9.1671582835795
Al 4.821158673316001 0.8372917440565 21.351425668579502
Al 3.214621963316001 3.7538753040565 9.1784477235795
Ga 3.1582813333160007 3.6696053290565 21.3627151085795
O -0.037093182573 1.861234092041 5.055631975822
O -0.093433812573 1.7769641170409998 17.239899360822
O -1.6999705225730004 4.693547677041001 5.066921415822
O -1.7563111525730004 4.609277702041001 17.251188800822
O 3.247335977427 1.885516117041 5.070747980822
O 3.190995347427 1.8012461420409998 17.255015365822
O 1.584458637426999 4.7178297020410005 5.082037420822
O 1.528118007426999 4.633559727041001 17.266304805822
O 1.6023043725730002 0.911091542959 7.155040854177999
O 1.5459637425730002 0.8268215679590001 19.339308239178
O -0.0605729674269998 3.743405127959 7.166330294178
O -0.1169135974269998 3.659135152959 19.350597679178
O 4.886733532573 0.935373567959 7.170156859178
O 4.830392902573001 0.8511035929590001 19.354424244178
O 3.2238561925730007 3.767687152959 7.181446299177999
O 3.167515562573001 3.683417177959 19.365713684178
O 1.583835914059 0.883467845154 11.149043702981
O 1.527495284059 0.799197870154 23.333311087981
O -0.0790414259409998 3.715781430154 11.160333142981
O -0.1353820559409998 3.631511455154 23.344600527980997
O 4.868265074059001 0.907749870154 11.164159707981002
O 4.8119244440590005 0.823479895154 23.348427092980998
O 3.2053877340590007 3.740063455154 11.175449147981
O 3.149047104059001 3.655793480154 23.359716532980997
O -0.018624724059 1.888857789846 1.061629127019
O -0.074965354059 1.804587814846 13.245896512019
O -1.6815020640590004 4.721171374846001 1.072918567019
O -1.7378426940590004 4.636901399846001 13.257185952019
O 3.265804435941 1.913139814846 1.076745132019
O 3.209463805941 1.828869839846 13.261012517019
O 1.6029270959409994 4.745453399846001 1.088034572019
O 1.5465864659409994 4.6611834248460005 13.272301957019
O -0.0140851575 -0.02106749375 3.04606684625
O -0.0704257875 -0.10533746875 15.23033423125
O 4.8918958225 2.85981014125 3.08758829625
O 4.835555192500001 2.77554016625 15.27185568125
O 3.2703440025000003 0.00321453125 3.06118285125
O 3.2140033725 -0.08105544375 15.24545023625
O 1.6074666625 2.8355281162500003 3.07247229125
O 1.5511260325 2.75125814125 15.25673967625
O -0.0422554725 -0.06320248125 9.13820053875
O -0.0985961025 -0.14747245625 21.32246792375
O 4.863725507500001 2.81767515375 9.179721988750002
O 4.8073848775000005 2.73340517875 21.36398937375
O 3.2421736875 -0.03892045625 9.153316543750002
O 3.1858330575 -0.12319043125 21.33758392875
O 1.5792963475 2.7933931287500005 9.16460598375
O 1.5229557175 2.70912315375 21.34887336875
