80   
   
Al 1.6525457232499998 7.445547848259999 6.50742992912
Al 6.74902816325 7.421801233259998 6.48546746912
Ga 3.52032462431 1.2899254077599998 1.8276415435
Ga 8.61680706431 1.26617879276 1.8056790835
Ga 0.98025868569 3.06793594852 1.83518924416
Ga 6.07674112569 3.0441893335199994 1.81322678416
Al 4.19261166187 5.6675373075 6.49988222846
Ga 9.28909410187 5.6437906925 6.47791976846
Al 0.93890072878 5.748810244455 -0.0151157472
Al 6.03538316878 5.725063629455001 -0.0370782072
Ga 4.218140771219999 2.979626435545 4.6596184822
In 9.31462321122 2.9558798205450003 4.6376560222
Ga 1.66245276026 1.3827410751249998 4.67372728348
Ga 6.75893520026 1.358994460125 4.65176482348
Ga 3.53476347974 7.363554934875 9.337701181520002
In 8.631245919739998 7.339808319875 9.31573872152
Ga 0.89755776588 0.27614964825 9.35335918089
Al 5.994040205879999 0.25240303325 9.331396720890002
Ga 4.29957812464 8.470110643089999 4.63933543265
In 9.39606056464 8.44636402809 4.61737297265
Al 1.7335293610400002 4.63495235339 4.6577956374500005
Al 6.83001180104 4.611205738390001 4.63583317745
Ga 3.4636065294800003 4.11130793795 9.33489897609
Ga 8.56008896948 4.087561322949999 9.31293651609
Al 3.5290620471100005 1.370479681345 7.35405763022
In 8.62554448711 1.346733066345 7.33209517022
Al 1.65103975365 7.368208254075 2.6670604738
Al 6.747522193649999 7.344461639075 2.6450980138
Al 4.19175323931 5.730089771395 2.65924081042
Ga 9.28823567931 5.706343156395 2.63727835042
Al 0.98834856145 3.0085981640250004 7.3618772936
Ga 6.08483100145 2.984851549025 7.339914833600002
O 4.28793554619 5.8454991163250005 8.335086356319998
O 9.384417986189998 5.821752501325001 8.31312389632
O 0.90068329945 2.8969749970550005 3.67182000246
O 5.997165739450001 2.8732283820550006 3.64985754246
O 3.44236810567 1.4686946014950002 3.663592395
O 8.53885054567 1.444947986495 3.641629935
O 1.74625073997 7.273779511884999 8.34331396378
O 6.84273317997 7.250032896885 8.32135150378
O 2.7012874376700005 0.077455828365 5.88011301364
O 7.797769877669999 0.053709213365 5.85815055364
O 2.4661191452499995 8.655588558774998 1.1810565597
O 7.56260158525 8.631841943775 1.1590940997
O 4.99485301067 4.429467001615 1.17826820664
O 10.091335450670002 4.405720386615 1.15630574664
O 0.17255357225 4.303577385525 5.8829013667000005
O 5.269036012249999 4.279830770525 5.8609389067
O 0.11477846777 7.232475531714998 1.11901150334
O 5.211260907769999 7.208728916714999 1.09704904334
O 5.05198531931 1.500283106145 5.79228725832
O 10.148467759310002 1.476536491145 5.77032479832
O 2.50997673957 2.858617472665 5.80065084714
O 7.60645917957 2.834870857665 5.77868838714
O 2.65678704751 5.874141165195001 1.11064791452
O 7.75326948751 5.850394550195001 1.08868545452
O 5.01320627695 7.288929323809999 5.94055805017
O 10.10968871695 7.2651827088099985 5.91859559017
O 0.15492345129 1.44443653127 1.2892161863100002
O 5.25140589129 1.4206899162700002 1.26725372631
O 2.7100448585900003 2.91891634087 1.27534535241
O 7.80652729859 2.89516972587 1.25338289241
O 2.45808486965 5.81444951421 5.95442888407
O 7.554567309649999 5.79070289921 5.93246642407
O 1.88150167298 1.4932467688650002 8.10093963022
O 6.97798411298 1.469500153865 8.07897717022
O 3.3049477367 7.248262940694999 3.40015273914
O 8.4014301767 7.2245163256949985 3.37819027914
O 0.7502310463 5.861215667394999 3.41385359634
O 5.8467134863000005 5.837469052395 3.39189113634
O 4.436218363379999 2.8802940421650005 8.08723877302
O 9.532700803380001 2.856547427165 8.06527631302
O 4.29685705753 0.00496448049 8.41185554277
O 9.39333949753 -0.01878213451 8.389893082769998
O 0.89232423447 8.737759663509998 3.72618777623
O 5.98880667447 8.71401304851 3.70422531623
O 3.42041055285 4.37174604827 3.72367138589
O 8.516892992849998 4.34799943327 3.70170892589
O 1.76877073915 4.370978095730001 8.41437193311
O 6.865253179150001 4.3472314807300005 8.39240947311
