80   
   
Ga 10.81871289488 4.545025e-06 1.20643044302
In 10.81870519988 3.136288380025 1.20643885302
Ga 23.07175106488 1.0720025e-05 1.18828587302
Ga 23.07174336988 3.136294555025 1.1882942830199998
In -0.12322985488 -3.580025e-06 4.74090721698
Al -0.1232375498800001 3.136280254975 4.740915626980001
In 12.12980831512 2.594975e-06 4.722762646980001
Ga 12.12980062012 3.136286429975 4.72277105698
Al 4.69218996238 1.568143375025 1.21550693302
Al 4.69218226738 4.704427210024999 1.21551534302
Al 16.945228132379995 1.568149550025 1.19736236302
Ga 16.945220437379998 4.704433385024999 1.19737077302
Ga 6.003285382619999 1.568141424975 4.731839136980001
Al 6.003277687619999 4.704425259975 4.73184754698
Ga 18.25632355262 1.568147599975 4.71369456698
Al 18.25631585762 4.704431434975 4.7137029769800005
In 9.23631843429 1.568143536615 4.07706543141
Al 9.23631073929 4.704427371615 4.077073841410001
Ga 21.48935660429 1.568149711615 4.058920861410001
Al 21.48934890929 4.704433546615 4.05892927141
In 1.4591569107100002 1.568141263385 1.87028063859
Ga 1.45914921571 4.704425098384999 1.87028904859
Ga 13.712195080710002 1.568147438385 1.85213606859
In 13.71218738571 4.704431273385 1.85214447859
In 3.10980319679 -1.468385e-06 4.086133511410001
Al 3.1097955017900003 3.136282366615 4.08614192141
Ga 15.362841366789997 4.706615e-06 4.06798894141
In 15.362833671789996 3.136288541615 4.067997351410001
Al 7.5856798432099986 2.433385e-06 1.86120414859
In 7.585672148209999 3.136286268385 1.86121255859
In 19.83871801321 8.608385e-06 1.84305957859
In 19.83871031821 3.136292443385 1.84306798859
O 9.45261097478 2.829955e-06 2.59191017512
O 9.452603279780002 3.136286664955 2.59191858512
O 21.70564914478 9.004955e-06 2.57376560512
O 21.70564144978 3.136292839955 2.57377401512
O 1.24287206522 -1.864955e-06 3.35542748488
O 1.2428643702200002 3.136281970045 3.35543589488
O 13.49591023522 4.310045e-06 3.33728291488
O 13.49590254022 3.136288145045 3.33729132488
O 3.32608804228 1.568141659955 2.60098666512
O 3.32608034728 4.704425494954999 2.60099507512
O 15.57912621228 1.568147834955 2.58284209512
O 15.57911851728 4.704431669955 2.58285050512
O 7.36938730272 1.568143140045 3.34635940488
O 7.369379607720002 4.704426975044999 3.34636781488
O 19.62242547272 1.568149315045 3.32821483488
O 19.62241777772 4.704433150045 3.32822324488
O 8.845062806249999 5.19225e-07 5.29412846875
O 8.845055111249998 3.136284354225 5.29413687875
O 21.09810097625 6.694225e-06 5.27598389875
O 21.09809328125 3.136290529225 5.27599230875
O 1.85042023375 4.45775e-07 0.65320919125
O 1.85041253875 3.136284280775 0.6532176012500001
O 14.10345840375 6.620775e-06 0.63506462125
O 14.10345070875 3.136290455775 0.63507303125
O 2.71853987375 1.568139349225 5.30320495875
O 2.71853217875 4.704423184225 5.30321336875
O 14.971578043749997 1.568145524225 5.28506038875
O 14.971570348749998 4.704429359225 5.28506879875
O 7.97693547125 1.568145450775 0.6441411112500001
O 7.976927776250002 4.704429285775 0.64414952125
O 20.22997364125 1.568151625775 0.62599654125
O 20.22996594625 4.704435460775 0.62600495125
O -1.1082551564099998 1.56813807117 4.43228492361
O -1.10826285141 4.70442190617 4.43229333361
O 11.14478301359 1.56814424617 4.41414035361
O 11.14477531859 4.70442808117 4.41414876361
O 11.80373050141 1.56814672883 1.51506114639
O 11.80372280641 4.70443056383 1.51506955639
O 24.05676867141 1.56815290383 1.49691657639
O 24.05676097641 4.70443673883 1.49692498639
O 5.018267776090001 -7.5883e-07 4.42320843361
O 5.018260081090001 3.13628307617 4.42321684361
O 17.271305946090003 5.41617e-06 4.40506386361
O 17.27129825109 3.13628925117 4.40507227361
O 5.677215263909999 1.72383e-06 1.52412922639
O 5.677207568909999 3.13628555883 1.52413763639
O 17.93025343391 7.89883e-06 1.50598465639
O 17.93024573891 3.13629173383 1.50599306639
