80   
   
Al -0.0789466875 -0.050716955 5.8896196575
In -0.2368400625 -0.152150865 17.6688589725
Al 4.3880217725 2.894700175 5.9735727075
Al 4.230128397500001 2.793266265 17.752812022499995
Al 3.0050048875 0.13244898 5.9321332425
In 2.8471115125 0.03101507 17.711372557499995
Al 1.3040701975 2.71153424 5.9310591225
Al 1.1461768225 2.61010033 17.7102984375
Al 0.0 0.0 0.0
In -0.157893375 -0.10143391 11.779239315000002
Al 4.46696846 2.94541713 0.08395305
Al 4.309075085 2.84398322 11.863192365
Al 3.083951575 0.183165935 0.042513585
Al 2.9260582 0.081732025 11.821752900000002
Al 1.383016885 2.762251195 0.041439465
Al 1.22512351 2.660817285 11.82067878
Al -0.1454353481564999 1.7549089629514998 2.9582635982385
Al -0.3033287231564999 1.6534750529514997 14.7375029132385
Al -1.8463700381565 4.3339942229515005 2.9571894782385
Al -2.0042634131565 4.232560312951501 14.736428793238499
Al 2.9385162268434994 1.9380748979515 3.0007771832385
Al 2.7806228518434994 1.8366409879515 14.7800164982385
Al 1.2375815368434997 4.5171601579515 2.9997030632385
Al 1.0796881618434997 4.4157262479515005 14.778942378238499
Al 1.3705588581565 0.9059083220484998 8.8624151817615
Al 1.2126654831565 0.8044744120484998 20.6416544967615
Al -0.3303758318435001 3.4849935820484994 8.8613410617615
Ga -0.4882692068435001 3.3835596720484995 20.6405803767615
Al 4.4545104331565 1.0890742570485 8.9049287667615
Al 4.2966170581565 0.9876403470484998 20.6841680817615
Al 2.7535757431565 3.6681595170484993 8.9038546467615
Al 2.5956823681565 3.5667256070484994 20.6830939617615
O -0.1713140723189999 1.7382839451024998 4.888880921967
O -0.3292074473189999 1.6368500351024995 16.668120236967003
O -1.872248762319 4.3173692051025006 4.887806801967
O -2.0301421373190003 4.215935295102501 16.667046116967
O 2.912637502681 1.9214498801025 4.931394506967
O 2.754744127681 1.8200159701025 16.710633821967
O 1.2117028126809997 4.5005351401025 4.930320386967
O 1.0538094376809997 4.3991012301025005 16.709559701967
O 1.3964375823189998 0.9225333398975 6.931797858033
O 1.2385442073189998 0.8210994298974998 18.711037173033
O -0.304497107681 3.5016185998975 6.930723738033
O -0.4623904826810001 3.4001846898974994 18.709963053032997
O 4.480389157319 1.1056992748975 6.974311443033
O 4.322495782319001 1.0042653648974995 18.753550758032997
O 2.779454467319 3.6847845348974992 6.973237323033
O 2.621561092319 3.5833506248975 18.752476638033
O 1.344680133994 0.8892833041994999 10.79303250549
O 1.186786758994 0.7878493941994998 22.57227182049
O -0.3562545560060001 3.4683685641994995 10.79195838549
O -0.5141479310060001 3.3669346541995 22.57119770049
O 4.428631708994001 1.0724492391994995 10.83554609049
O 4.270738333994 0.9710153291994998 22.61478540549
O 2.727697018994 3.6515344991994994 10.83447197049
O 2.569803643994 3.5501005891994994 22.61371128549
O -0.1195566239939999 1.7715339808004995 1.02764627451
O -0.277449998994 1.6701000708004998 12.80688558951
O -1.820491313994 4.3506192408005 1.02657215451
O -1.978384688994 4.2491853308005005 12.805811469510001
O 2.964394951006 1.9546999158005 1.07015985951
O 2.806501576006 1.8532660058005 12.84939917451
O 1.2634602610059995 4.5337851758005 1.06908573951
O 1.1055668860059995 4.4323512658005 12.84832505451
O -0.03947334375 -0.0253584775 2.94480982875
O -0.19736671875 -0.1267923875 14.72404914375
O 4.42749511625 2.9200586525 3.02876287875
O 4.269601741250001 2.8186247425 14.80800219375
O 3.04447823125 0.1578074575 2.98732341375
O 2.88658485625 0.0563735475 14.76656272875
O 1.34354354125 2.7368927174999995 2.98624929375
O 1.18565016625 2.6354588075 14.76548860875
O -0.11842003125 -0.0760754325 8.83442948625
O -0.27631340625 -0.1775093425 20.61366880125
O 4.34854842875 2.8693416975 8.91838253625
O 4.1906550537500005 2.7679077875 20.69762185125
O 2.96553154375 0.1070905025 8.87694307125
O 2.80763816875 0.0056565925 20.65618238625
O 1.26459685375 2.6861757625 8.87586895125
O 1.10670347875 2.5847418525 20.65510826625
