80   
   
In 1.70849649652 7.67224965493 6.674497025809999
Ga 6.967385426520001 7.649811199930002 6.64688760081
In 3.63376416148 1.3312642368499998 1.87238884215
In 8.892653091480001 1.30882578185 1.84477941715
Ga 1.0120280892 3.16053133835 1.88074145951
Ga 6.2709170192000006 3.13809288335 1.85313203451
Al 4.3302325688000005 5.842982553430001 6.666144408449999
Ga 9.5891214988 5.82054409843 6.63853498345
In 0.96645063535 5.918139462555001 -0.022701882135
Ga 6.2253395653500005 5.895701007555 -0.050311307135
Ga 4.3558846546500005 3.0740412674450006 4.778776307135
Ga 9.61477358465 3.0516028124450005 4.751166882135
In 1.71941868341 1.4292168869450002 4.797547284515
In 6.978307613410001 1.406778431945 4.769937859515
In 3.65348860659 7.591728213055 9.579875980485
In 8.912377536590002 7.569289758055 9.552266555485
Al 0.93515957904 0.29497305519 9.60627939066
Ga 6.194048509039999 0.27253460019 9.57866996566
Al 4.437646566960001 8.72591451607 4.75190117666
Ga 9.69653549696 8.70347606107 4.72429175166
Al 1.7914115435600002 4.77702946357 4.77758173996
In 7.050300473560001 4.75459100857 4.74997231496
Ga 3.5813946024400005 4.24385810769 9.58059882736
Ga 8.840283532439999 4.22141965269 9.55298940236
Ga 3.64813025757 1.4203044265150002 7.548851561464998
Ga 8.907019187570002 1.397865971515 7.521242136465
Ga 1.70323336043 7.5883870518649985 2.729877097695
Al 6.96212229043 7.565948596864998 2.702267672695
In 4.32557999847 5.9031237423650005 2.7210926312149994
Ga 9.58446892847 5.880685287365001 2.693483206215
Ga 1.02578361953 3.1055677360150007 7.557636027944999
Ga 6.284672549530001 3.0831292810150006 7.530026602945
O 4.43030899981 6.028243656215 8.550919609464998
O 9.68919792981 6.005805201215 8.523310184465
O 0.93177588219 2.986545868605 3.767535003775
O 6.1906648121900005 2.964107413605 3.739925578775
O 3.55503836887 1.5172882471050002 3.758102763615
O 8.81392729887 1.494849792105 3.730493338615
O 1.80704651313 7.497501277715 8.560351849625
O 7.06593544313 7.475062822714999 8.532742424624999
O 2.79306991949 0.087314732855 6.037090557105
O 8.051958849490001 0.064876277855 6.009481132105
O 2.54231294651 8.912287204604999 1.201291868615
O 7.80120187651 8.889848749605 1.173682443615
O 5.15336411799 4.562953743105 1.200496610855
O 10.41225304799 4.540515288105 1.172887185855
O 0.18201874801 4.436648194355 6.037885814865
O 5.44090767801 4.414209739355 6.010276389865
O 0.11656116367 7.446339910944999 1.141447866875
O 5.37545009367 7.423901455944998 1.113838441875
O 5.21801255033 1.552801796595 5.942992977405
O 10.47690148033 1.530363341595 5.915383552405
O 2.5944447807700004 2.950057522095 5.952641142125
O 7.85333371077 2.927619067095 5.925031717125
O 2.7401289332300003 6.049084185445 1.131799702155
O 7.99901786323 6.026645730445001 1.1041902771549998
O 5.17576887656 7.5117393848 6.08904707287
O 10.43465780656 7.4893009298 6.06143764787
O 0.16052428544 1.4883803113199998 1.32251963197
O 5.4194132154400005 1.46594185632 1.29491020697
O 2.79645601164 3.0072013738200005 1.30412652257
O 8.055344941639998 2.9847629188200004 1.27651709757
O 2.53983715036 5.9929183223 6.10744018227
O 7.79872608036 5.970479867300001 6.07983075727
O 1.94874151693 1.546849952165 8.317532696115
O 7.20763044693 1.5244114971650002 8.289923271114999
O 3.4106124770700004 7.466386296675 3.481369079765
O 8.669501407070001 7.443947841675 3.453759654765
O 0.7750623544700002 6.037567604175001 3.499492283465
O 6.03395128447 6.015129149175001 3.471882858465
O 4.584291639530001 2.9756686446650003 8.299409492415
O 9.84318056953 2.953230189665 8.271800067414999
O 4.4419841058400005 0.01612962162 8.636105486129999
O 9.70087303584 -0.00630883338 8.608496061129998
O 0.92080878416 8.99906260438 3.81704801087
O 6.17969771416 8.97662414938 3.78943858587
O 3.53124938988 4.505725350880001 3.81668460223
O 8.79013831988 4.483286895880001 3.78907517723
O 1.8315435001200004 4.509466875119999 8.63646889477
O 7.090432430120001 4.48702842012 8.608859469769998
