80   
   
In 1.78013993249 8.057223077680002 6.962669707919999
In 7.32366823749 8.050407167680001 6.930601607919999
In 3.82720338529 1.40989885514 1.95270703506
Al 9.370731690289999 1.40308294514 1.92063893506
In 1.05772151767 3.31863064052 1.95988250232
In 6.601249822669999 3.31181473052 1.92781440232
In 4.54962180011 6.1484912923 6.955494240659999
In 10.09315010511 6.141675382300001 6.923426140659999
In 0.999725940115 6.20523084513 -0.03459636536
In 6.543254245115 6.198414935130001 -0.06666446536
In 4.584472489885 3.243538949870001 4.98736473036
In 10.128000794884999 3.2367230398700007 4.95529663036
In 1.810629424425 1.5114044059100002 5.01146798444
In 7.3541577294249985 1.5045884959100002 4.97939988444
In 3.832312375575 7.983944419090002 9.99868205056
In 9.375840680575 7.97712850909 9.96661395056
In 0.99033633507 0.32835626379 10.04062121643
In 6.533864640069999 0.32154035379 10.00855311643
In 4.652487978189999 9.16689940315 4.94941405523
Al 10.19601628319 9.16008349315 4.91734595523
Ga 1.87575251209 5.02009703455 4.98474402803
In 7.41928081709 5.01328112455 4.95267592803
In 3.76707180117 4.47515863239 10.00529124363
Ga 9.310600106170002 4.46834272239 9.97322314363
In 3.845321776195001 1.51285930009 7.8863075897
In 9.388850081195 1.50604339009 7.8542394897
Al 1.772595348185 7.96264685813 2.8393978538799995
In 7.316123653184999 7.95583094813 2.80732975388
In 4.542257990844999 6.20483181179 2.8315207167
In 10.085786295845 6.19801590179 2.7994526167
In 1.075659133535 3.2706743464300003 7.89418472688
Al 6.619187438535 3.2638584364300005 7.86211662688
O 4.655601450614999 6.3461508355100005 8.925318802879998
O 10.199129755615001 6.339334925510001 8.893250702879998
O 0.974769268205 3.139230077070001 3.93255155474
O 6.518297573205 3.1324141670700003 3.90048345474
O 3.744703073425 1.6077901392900005 3.92362191268
O 9.288231378425 1.6009742292900002 3.89155381268
O 1.885667645395 7.877590773289999 8.934248444939998
O 7.429195950394998 7.87077486329 8.902180344939998
O 2.947403625815 0.11061052283 6.3088626286
O 8.490931930815 0.10379461283 6.2767945286
O 2.651950593645 9.35017666191 1.23871020726
O 8.195478898644998 9.34336075191 1.20664210726
O 5.418268898065 4.80040194333 1.2438139636
O 10.961797203064998 4.79358603333 1.2117458636
O 0.181085321395 4.660385241410001 6.30375887226
O 5.724613626395 4.653569331410001 6.27169077226
O 0.099604682225 7.806042773109999 1.18019459658
O 5.643132987224999 7.79922686311 1.14812649658
O 5.498809643315 1.65399914715 6.20646013256
O 11.042337948315 1.64718323715 6.17439203256
O 2.7287854505749998 3.1099807154100003 6.21574060958
O 8.272313755575 3.10316480541 6.18367250958
O 2.869628874965 6.35006120485 1.17091411956
O 8.413157179965001 6.343245294850001 1.13884601956
O 5.43522197992 7.89905967527 6.34882091331
O 10.978750284919998 7.89224376527 6.31675281331
O 0.1651896202 1.5625659320100005 1.3797847926100002
O 5.7087179252 1.5557500220100002 1.3477166926100002
O 2.9388745075 3.1626483293100005 1.35629549971
O 8.4824028125 3.15583241931 1.32422739971
O 2.66153709262 6.298977277970001 6.37231020621
O 8.205065397619999 6.29216136797 6.34024210621
O 2.054006211325 1.6413672487700002 8.69066069922
O 7.597534516324998 1.63455133877 8.65859259922
O 3.573192365515 7.84149839619 3.62411104822
O 9.116720670515 7.83468248619 3.59204294822
O 0.7996204626150001 6.3357389607900005 3.64716179742
O 6.343148767615 6.328923050790001 3.61509369742
O 4.827578114224999 3.1471266841700003 8.66760995002
O 10.371106419225 3.14031077417 8.63554185002
O 4.68726999442 0.04565532243 9.02479071703
O 10.23079829942 0.03883941243 8.99272261703
O 0.94392313158 9.44037769657 3.97388298397
O 6.48745143658 9.43356178657 3.94181488397
O 3.71006066096 4.73968623895 3.97968841023
O 9.253588965959997 4.732870328950001 3.94762031023
O 1.92113246504 4.7463467800500005 9.01898529077
O 7.46466077004 4.73953087005 8.98691719077
