80   
   
Al 7.053442445 2.3497369849999994 7.02713151
In 2.3494202900000003 7.033354165 7.04711524
Al 7.03186071 7.051932979999999 2.341393015
In 7.043452905 7.04358177 7.0352741850000005
Ga 2.3378280950000003 7.041705375 2.35323407
In 7.04185025 2.358088195 2.33325034
Ga 2.35940983 2.3395093799999995 7.038972565
Al 2.347817635 2.34786059 2.345091395
Ga 7.043330866220001 4.38165353712 4.6837085606
In 2.32771651622 9.07362192712 0.0098111206
Al 7.03038009378 5.02836763788 -0.0090652056
Ga 4.689852230740001 7.043211454779999 4.37507020794
Al 0.01740135074 2.33078785478 9.07264975794
In -0.00260384574 7.031848085219999 5.025279102060001
Ga 4.38223714968 4.69085009786 7.03792856674
Al 9.07466710968 0.01558412786 2.32406366674
Al 5.030615125320001 -0.00160373286 7.02817550826
Al 2.34793967378 5.00978882288 4.6966570194
Ga 7.04036963378 0.33452285288 -0.0172078806
Ga 2.33770605622 4.37977714212 0.0016684456
Al 4.70141830926 2.3482309052199994 5.00529537206
Al -0.01419604074 7.040199295219999 0.33139793206
Al 0.00580915574 2.33913906478 4.378768587940001
Al 5.009033390320001 4.700592262139999 2.34243701326
Al 0.33658251032 -0.01183133786 7.04001656326
Al 4.380634494680001 0.00535652286 2.33590472174
Ga 2.3579292137800003 0.31594403788 4.6885143444
In 4.689826114260001 2.35658211522 0.31141420206
In 0.31500077532 4.690364657139999 2.35427806826
Al 7.03334132622 9.075498322119998 4.6918512356
Ga 4.70144442574 7.034860244779999 9.06895137794
Al 9.07626976468 4.701077702859999 7.02608751174
O 5.82799758216 3.67231206455 6.15005675869
O 3.56923105228 8.358107544189998 7.92878246001
O 8.25294690752 5.73249795541 1.45356844639
O 5.82800080804 5.71568833585 7.9185062849099985
O 6.15524885777 5.82725550494 3.66517652778
O 7.936592295209999 3.5697043776199995 8.3506969771
O 1.46107587899 8.25418606058 5.7277839639
O 7.92525931803 5.82745995686 5.70725648122
O 3.672001550250001 6.15596684463 5.82183613539
O 8.356713844610002 7.93508866959 3.55999376459
O 5.7346172517900005 1.46223866621 8.24934896881
O 5.714843703350001 7.92531171957 5.81973508121
O 3.56327295784 5.71913029545 3.23030882131
O 5.822039487720001 1.03333481581 1.45158311999
O 1.13832363248 3.65894440459 7.92679713361
O 3.56326973196 3.67575402415 1.46185929509
O 3.23602168223 3.56418685506 5.71518905222
O 1.4546782447900002 5.82173798238 1.0296686029
O 7.93019466101 1.1372562994199995 3.6525816161
O 1.46601122197 3.56398240314 3.67310909878
O 5.71926898975 3.23547551537 3.55852944461
O 1.03455669539 1.45635369041 5.82037181541
O 3.65665328821 7.929203693789998 1.13101661119
O 3.67642683665 1.46613064043 3.56063049879
O 1.11238323216 8.364280454549998 1.47615931869
O 8.261661012279998 3.68284157419 3.21491756001
O 3.58049602752 1.0200743554099998 6.151147996390001
O 1.13236553804 1.01996715585 3.22832349491
O 1.48279797777 1.1148319049399995 8.36275607778
O 3.22097794521 8.26167276762 3.6767995371
O 6.15350583899 3.57892009058 1.0139190639
O 3.22962404803 1.1317387768599998 1.01707369122
O 8.36443151025 1.48070087463 1.10797123539
O 3.68426296461 3.222665069589999 8.257573314590001
O 1.01900290179 6.15420705621 3.57545152881
O 1.0192084333499998 3.2295905395699998 1.12955229121
O 8.27888730784 1.02716190545 7.904206261309999
O 1.12960952772 5.70860078581 6.16544801999
O 5.81077451248 8.371368004589998 3.22921758361
O 8.25890500196 8.371475204149998 6.152042085090001
O 7.90847256223 8.276610455059998 1.01760950222
O 6.170292594790001 1.1297695923799995 5.7035660429
O 3.23776470101 5.8125222694200005 8.3664465161
O 6.161646491970001 8.259703583139999 8.363291888780001
O 1.02683902975 7.910741485369998 8.272394344609998
O 5.70700757539 6.16877729041 1.12279226541
O 8.372267638210001 3.237235303789999 5.80491405119
O 8.37206210665 6.16185182043 8.25081328879
