80   
   
Ga 1.69917821426 7.70279327861 6.700228772749999
Al 6.98633109926 7.6901974386099985 6.675559377749999
Al 3.64962640446 1.3429181932699998 1.88154139067
In 8.93677928946 1.33032235327 1.85687199567
In 1.01035342652 3.17362602777 1.88816742273
In 6.29750631152 3.1610301877699998 1.86349802773
In 4.338451192200001 5.87208544411 6.69360274069
In 9.6256040772 5.859489604109999 6.668933345689999
Al 0.960418582655 5.94062516514 -0.023011375465
Ga 6.247571467655001 5.92802932514 -0.047680770465
Al 4.370604272345 3.09337425486 4.799331975465
In 9.657757157345 3.08077841486 4.774662580465
In 1.723107842325 1.43783344086 4.816866645445
In 7.010260727325 1.4252376008599998 4.792197250445
Ga 3.653046392675 7.6258919991399985 9.617955384555
In 8.940199277675001 7.613296159139998 9.593285989555
Al 0.9339670617 0.29853216036 9.64385064861
In 6.221119946699999 0.2859363203599999 9.619181253610002
In 4.44209691054 8.765133827599998 4.77165437853
Al 9.72924979554 8.752537987599998 4.74698498353
Al 1.78914658484 4.7974695576 4.79642379283
Al 7.07629946984 4.7848737176 4.77175439783
In 3.5869173874 4.266196430359999 9.619081234309999
Al 8.874070272400001 4.25360059036 9.59441183931
In 3.660562894245001 1.43274819059 7.579905156795
Al 8.947715779245001 1.42015235059 7.555235761795
Al 1.696365372875 7.618313964889999 2.740395264025
In 6.983518257875 7.605718124889998 2.7157258690249995
Ga 4.335979219295 5.932113846389999 2.733317060445
Al 9.623132104295 5.91951800639 2.708647665445
Al 1.020949047825 3.11894830909 7.586983360375
In 6.308101932825 3.10635246909 7.562313965375
O 4.437604627325 6.05833225975 8.585684426855
O 9.724757512325 6.04573641975 8.561015031854998
O 0.928891492355 2.99903181197 3.782218297125
O 6.216044377355001 2.98643597197 3.757548902125
O 3.5690166414950006 1.52959326747 3.774461836265
O 8.856169526495 1.51699742747 3.749792441265
O 1.7974794781850003 7.5277708042499984 8.593440887714998
O 7.084632363185 7.515174964249998 8.568771492714998
O 2.804334641165 0.09337044083 6.061991620614999
O 8.091487526165 0.08077460083 6.037322225615
O 2.538332109875 8.948298292329998 1.206222348325
O 7.825484994875001 8.93570245233 1.181552953325
O 5.171639889415001 4.58870542783 1.207509317865
O 10.458792774415 4.57610958783 1.182839922865
O 0.171026861625 4.452963305329999 6.060704651075
O 5.458179746625 4.44036746533 6.036035256075
O 0.102386829815 7.47265048157 1.144937016665
O 5.389539714815 7.460054641569998 1.1202676216649998
O 5.239557819145 1.5685426352699998 5.968740929395
O 10.526710704145 1.5559467952699997 5.944071534395
O 2.599262235765 2.96572732177 5.976723476015
O 7.886415120765002 2.95313148177 5.952054081015
O 2.742682413195 6.07546579507 1.1369544700449998
O 8.029835298195001 6.06286995507 1.112285075045
O 5.18569549846 7.548218473029999 6.1145475592
O 10.47284838346 7.53562263303 6.0898781642
O 0.15778361742 1.49398532849 1.32751943548
O 5.444936502420001 1.48138948849 1.30285004048
O 2.80498178752 3.02308189099 1.31038041558
O 8.09213467252 3.01048605099 1.28571102058
O 2.53849732836 6.01912191053 6.1316865791
O 7.8256502133599986 6.00652607053 6.1070171841
O 1.951367694165 1.55659011758 8.350552264384998
O 7.238520579164998 1.54399427758 8.325882869384998
O 3.4126913309950004 7.49916874906 3.495791382375
O 8.699844215995 7.486572909059999 3.471121987375
O 0.7657062036950001 6.06038950906 3.512647795075
O 6.052859088695 6.04779366906 3.487978400075
O 4.598352821465 2.99536935758 8.333695851684999
O 9.885505706465 2.98277351758 8.309026456684999
O 4.46069935814 0.02525502801 8.67199941206
O 9.747852243140002 0.01265918801 8.64733001706
O 0.90642860086 9.032525207989998 3.83112233194
O 6.19358148586 9.01992936799 3.80645293694
O 3.5393955119200005 4.528424627490001 3.832861473
O 8.82654839692 4.51582878749 3.808192078
O 1.8277324470800005 4.52935560851 8.670260271
O 7.11488533208 4.516759768509999 8.645590876
