80   
   
In -0.00723571 -0.0640928875 6.218590015
In -0.02170713 -0.1922786625 18.655770045
Al 5.103707625 2.9596300775 6.25456941
In 5.089236205 2.8314443025 18.69174944
In 3.4207494 -0.0274167975 6.22297674
In 3.40627798 -0.1556025725 18.66015677
In 1.675722515 2.9229539875 6.250182685
In 1.661251095 2.7947682125 18.687362715
Al 0.0 0.0 0.0
In -0.01447142 -0.128185775 12.43718003
Al 5.110943335 3.023722965 0.035979395
Al 5.096471915 2.89553719 12.473159425
In 3.42798511 0.03667609 0.004386725
In 3.41351369 -0.091509685 12.441566755
In 1.682958225 2.987046875 0.03159267
In 1.668486805 2.8588611 12.4687727
In -0.0243053393779998 1.946894862328 3.1288925858795
In -0.0387767593779998 1.818709087328 15.5660726158795
In -1.769332224378 4.897265647328 3.1560985308795
In -1.783803644378 4.769079872328 15.5932785608795
Al 3.4036797706219994 1.983570952328 3.1332793108795003
In 3.3892083506219994 1.855385177328 15.5704593408795
Al 1.6586528856219993 4.933941737328 3.1604852558795
In 1.6441814656219993 4.805755962328 15.5976652858795
In 1.692792144378 0.911966237672 9.339880114120499
In 1.6783207243779998 0.783780462672 21.7770601441205
Al -0.0522347406219999 3.862337022672 9.3670860591205
In -0.0667061606219999 3.734151247672 21.804266089120496
Al 5.120777254378001 0.948642327672 9.344266839120499
In 5.106305834378 0.8204565526719998 21.7814468691205
In 3.375750369378 3.899013112672 9.371472784120499
In 3.361278949378 3.770827337672 21.808652814120496
O -0.0266772051159998 1.9258852138055 5.1673463927965
O -0.0411486251159998 1.7976994388055 17.6045264227965
O -1.7717040901160002 4.8762559988055 5.1945523377965
O -1.7861755101160002 4.7480702238055 17.6317323677965
O 3.401307904884 1.9625613038055 5.1717331177965
O 3.386836484884 1.8343755288055 17.6089131477965
O 1.6562810198839992 4.9129320888055 5.1989390627965
O 1.6418095998839992 4.7847463138055 17.6361190927965
O 1.6951640101159997 0.9329758861945 7.301426307203499
O 1.6806925901159997 0.8047901111945 19.738606337203496
O -0.0498628748839999 3.8833466711945 7.328632252203499
O -0.0643342948839999 3.7551608961945 19.765812282203502
O 5.123149120116 0.9696519761944998 7.305813032203501
O 5.108677700116001 0.8414662011944998 19.742993062203503
O 3.3781222351160003 3.9200227611945 7.3330189772034995
O 3.3636508151160003 3.7918369861945 19.7701990072035
O 1.6904202786399998 0.8909565891494999 11.3783339210375
O 1.6759488586399998 0.7627708141495 23.8155139510375
O -0.0546066063599999 3.8413273741495 11.4055398660375
O -0.0690780263599999 3.7131415991495 23.8427198960375
O 5.11840538864 0.9276326791494998 11.382720646037502
O 5.103933968640001 0.7994469041494998 23.8199006760375
O 3.37337850364 3.8780034641495 11.4099265910375
O 3.35890708364 3.7498176891495 23.8471066210375
O -0.0219334736399998 1.9679045108505 1.0904387789625
O -0.0364048936399998 1.8397187358505 13.527618808962501
O -1.7669603586400002 4.9182752958505 1.1176447239625
O -1.7814317786400002 4.7900895208505 13.5548247539625
O 3.4060516363599995 2.0045806008505 1.0948255039625
O 3.3915802163599995 1.8763948258505 13.532005533962499
O 1.6610247513599992 4.9549513858505 1.1220314489625
O 1.6465533313599992 4.8267656108505 13.5592114789625
O -0.003617855 -0.03204644375 3.1092950075
O -0.018089275 -0.16023221875 15.5464750375
O 5.10732548 2.99167652125 3.1452744025
O 5.09285406 2.86349074625 15.5824544325
O 3.424367255 0.00462964625 3.1136817325
O 3.409895835 -0.12355612875 15.5508617625
O 1.67934037 2.95500043125 3.1408876775000003
O 1.66486895 2.82681465625 15.5780677075
O -0.010853565 -0.09613933125 9.3278850225
O -0.025324985 -0.22432510625 21.7650650525
O 5.10008977 2.9275836337500003 9.3638644175
O 5.08561835 2.7993978587500004 21.8010444475
O 3.417131545 -0.05946324125 9.3322717475
O 3.402660125 -0.18764901625 21.7694517775
O 1.67210466 2.89090754375 9.3594776925
O 1.65763324 2.76272176875 21.7966577225
