80   
   
Al 1.6330489740499998 7.37896885455 6.4589507239
Ga 6.682995524049999 7.35659557455 6.4393195789
Ga 3.4871142710899994 1.2788910490499998 1.81506786946
In 8.537060821089998 1.2565177690499998 1.7954367244600002
Ga 0.96984575685 3.04085463627 1.8220455358800005
Ga 6.019792306849999 3.01848135627 1.80241439088
Al 4.15031748829 5.61700526733 6.45197305748
Ga 9.20026403829 5.59463198733 6.43234191248
In 0.9290381184899998 5.69902108026 -0.012758243275
Ga 5.978984668489999 5.67664780026 -0.032389388275
Al 4.17698946651 2.9531004497400004 4.625442028275001
Ga 9.22693601651 2.9307271697400004 4.605810883275001
Ga 1.64499799359 1.3695199695 4.637842624135001
Al 6.694944543589999 1.3471466895 4.618211479135001
Al 3.49690690141 7.2971659605 9.267569100865002
Al 8.546853451409998 7.2747926805 9.247937955865002
In 0.8853767244899999 0.27080750286 9.2797157085
Ga 5.935323274489999 0.24843422286 9.2600845635
Al 4.256456415889999 8.39584929834 4.607110560620001
Ga 9.30640296589 8.37347601834 4.587479415620001
Al 1.71470049369 4.59346238994 4.62310771072
Al 6.76464704369 4.57108910994 4.60347656572
Al 3.42713264669 4.07319441126 9.2637185584
Al 8.477079196690001 4.050821131259999 9.2440874134
Al 3.49343718338 1.3568888657700002 7.297723855175
Al 8.54338373338 1.3345155857700002 7.278092710175
Ga 1.63318397756 7.30359262983 2.648985767385
Ga 6.6831305275599995 7.281219349829998 2.629354622385
Al 4.151062769879999 5.68030444437 2.641783316325
Al 9.20100931988 5.65793116437 2.622152171325
Al 0.97555839106 2.98017705123 7.304926306235002
Al 6.02550494106 2.95780377123 7.285295161235002
O 4.243961379999999 5.79282379617 8.272733023455
O 9.29390793 5.77045051617 8.253101878455
O 0.89026577066 2.87074535223 3.644034922385
O 5.94021232066 2.84837207223 3.624403777385
O 3.4090599801 1.45547026941 3.636495294365
O 8.4590065301 1.43309698941 3.616864149365
O 1.72516717056 7.208098878989999 8.280272651475
O 6.775113720559999 7.18572559899 8.260641506475
O 2.67413204816 0.07541994909 5.834693081775001
O 7.724078598159998 0.05304666909 5.815061936775001
O 2.4411518828199994 8.58045919611 1.175514511745
O 7.49109843282 8.55808591611 1.155883366745
O 4.94774053066 4.39167607809 1.172470576525
O 9.997687080659999 4.36930279809 1.152839431525
O 0.16754340032 4.26420306711 5.837737016995001
O 5.217489950319999 4.24182978711 5.818105871995001
O 0.11163410102 7.16921152167 1.112507057485
O 5.1615806510199995 7.14683824167 1.092875912485
O 5.003075792999999 1.4864345931299998 5.749016888995
O 10.053022342999999 1.4640613131299998 5.729385743995
O 2.48397644452 2.8323719750700005 5.7566689093350005
O 7.533922994519998 2.8099986950700004 5.737037764335001
O 2.6307334495 5.8232741397300005 1.104855037145
O 7.6806799995 5.8009008597300005 1.085223892145
O 4.963286657679999 7.224667788389999 5.897948004380001
O 10.01323320768 7.2022945083900005 5.878316859380001
O 0.15264306488 1.43147351601 1.2795286920600002
O 5.20258961488 1.4091002360100002 1.2598975470600002
O 2.68410054448 2.89371301971 1.2673247827600005
O 7.734047094479998 2.87133973971 1.2476936377600003
O 2.43182917808 5.76242828469 5.910151913680001
O 7.48177572808 5.74005500469 5.890520768680001
O 1.86058465961 1.47796216002 8.038027215895001
O 6.91053120961 1.45558888002 8.018396070895001
O 3.27170511631 7.18482051078 3.3769334211850004
O 8.32165166631 7.16244723078 3.357302276185
O 0.74062906051 5.80925313318 3.3889968400850004
O 5.79057561051 5.78687985318 3.3693656950850004
O 4.39166071541 2.85352953762 8.025963796995
O 9.44160726541 2.8311562576200004 8.006332651995
O 4.25408303718 0.00307111053 8.347029459740002
O 9.304029587179999 -0.01930216947 8.327398314740002
O 0.88064639582 8.66070193947 3.69983667726
O 5.930592945819999 8.63832865947 3.680205532260001
O 3.38662476558 4.33324341969 3.69701752668
O 8.436571315579998 4.31087013969 3.67738638168
O 1.74810466742 4.33052963031 8.34984861032
O 6.79805121742 4.30815635031 8.33021746532
