40   
   
Al -0.0161640036164127 3.4907102380961006 14.086857507498253
In 1.4981745115935612 2.5960411317763383 2.532821342144778
Al 2.992723486593561 -0.0021706432236614 2.544719617144778
Al -1.498204253406439 2.6036953717763383 2.428674012144778
Ga 2.9905813570228523 1.7342736051275598 5.6222184603569705
Al -0.0063967371564389 0.0095962942763386 4.271001465894778
In -1.5030878417271485 4.34425231762756 7.33660203410697
Al -0.0085388667271484 1.7460405426275596 7.34850030910697
In 1.493290923272852 4.33659807762756 7.44074936410697
In -0.0024567098664127 3.470146750596101 4.9347116137482505
In -0.0106810861164127 3.482484843096101 10.425999149998253
Al 2.985098439522852 1.7424990001275598 9.283076817856971
Al 4.477505195133587 0.8807315255961015 12.372473933748253
Al 2.982956220133586 3.478943300596101 12.360575658748253
Al 1.4811264301335874 0.8883857655961014 12.268326603748253
Al -0.0146211134064389 0.0219343867763386 9.762289002144776
O 4.434038418122852 0.89085502212756 1.4127573592569709
O 2.999271402122852 3.38513832612756 1.4013350152569708
O 1.5575148037228517 0.8982030925275599 1.3127759224569708
O -0.0199943725564389 0.0299952738763386 13.349930192494778
O 0.0029165492835873 3.462085863496101 1.3470704233982511
O 1.5416413784228515 2.58591758312756 13.492537918956973
O 2.976408394422852 0.0916342791275599 13.503960262956973
O 4.418164992822852 2.57856951272756 13.592519355756973
O 1.4327759749835876 2.6390662600961017 6.216538048898252
O -0.0019910410164123 5.1333495640961 6.205115704898251
O -1.4437476394164128 2.6464143304961016 6.116556612098251
O 2.993432474122852 1.7299963997275598 3.7185721144569706
O -0.0092478542564389 0.0138734996763386 6.174647811794777
O -1.4376893947164129 4.301227241096102 3.6528851785982512
O -0.0029223787164125 1.8069439370961011 3.6643075225982504
O 1.4388342196835873 4.293879170696102 3.752866615398251
O -1.568486378556439 4.387277446276339 11.020318887294776
O -0.0141554445564388 1.6851372002763385 11.032693093294778
O 1.5477475370435612 4.379317036676339 11.128632110494776
O -0.0078299690164127 3.4782076376961006 8.522352804098249
O 2.982247322422852 1.7467762055275595 11.186723163756973
O 4.542903731743561 0.8377063972763386 8.68875722699478
O 2.988572797743561 3.5398466432763387 8.676383020994777
O 1.4266698161435614 0.8456668068763386 8.58044400379478
