80   
   
Al 7.3531886475 2.4480440425 7.348376724999999
Al 2.4494807225 7.344809637499998 7.35612303
In 7.3469227575 7.3530359024999985 2.4527464
Al 7.349825197499999 7.348238392499998 7.3531054949999985
In 2.4465782825 7.349607147499999 2.455763935
In 7.350286207499998 2.4528415525 2.44801763
Al 2.4528441725 2.4446152875 7.351394259999998
In 2.4499417325 2.4494127974999995 2.451035165
In 7.350284417099998 4.567326756699999 4.90024000614
In 2.4436740521 9.4688898617 0.00762721614
In 7.346924547899999 5.238550698299999 0.00052402386
In 4.898004374079999 7.349249000679999 4.57121029654
Al 0.00392578908 2.44082838568 9.46985815654
In -0.00194536908 7.345167784319998 5.24067666846
Al 4.5681112607 4.896193684659999 7.352455069879999
In 9.4689167457 0.00422559966 2.44434966988
Al 5.237921559299999 -0.00353435466 7.3473159151199985
In 2.4494825129 5.230324433299999 4.90390065386
Al 7.3502879979 0.3383563483 -0.00420474614
In 2.4470375021 4.5686955117 0.00289844614
Al 4.90176255592 2.4484021893199994 5.23293036346
In -0.00484780908 7.349965294319999 0.34031757346
In 0.00102334908 2.44562589568 4.56949906154
In 5.2316556693 4.90145750534 2.45168559012
Al 0.3375770843 -0.00696310966 7.35033345012
In 4.5685722707 0.00079684466 2.44736720488
In 2.4528459629 0.3301300833 4.89917188386
In 4.89886011592 2.45319969932 0.33257126846
In 0.3313111943 4.89802875034 2.45470312512
In 7.346920967099998 9.4675211067 4.90496877614
Al 4.90090681408 7.344451490679998 9.47156939154
Al 9.4684557357 4.89962243966 7.34943753488
O 6.07760493238 3.82990930478 6.42922728738
O 3.72316745182 8.726653988619999 8.2779394939
O 8.621415155179998 5.97297450398 1.5293608179
O 6.077229785619999 5.96459017762 8.27382405082
O 6.42735098128 6.076987867739999 3.83398548117
O 8.274397399879998 3.72138628162 8.730940173409998
O 1.52652297612 8.619568460379998 5.97601854199
O 8.271145967719999 6.076185365259999 5.96940745343
O 3.83125555865 6.42578736121 6.08028971167
O 8.72894220525 8.27399199661 3.72687782859
O 5.97267846855 1.5245932431899998 8.622432025809998
O 5.966541092549999 8.26975537399 6.080752083929999
O 3.72216199762 5.967741885219999 3.37491337262
O 6.07659947818 1.0709972013799998 1.5262011661
O 1.17835177482 3.82467668602 8.2747798421
O 3.72253714438 3.83306101238 1.53031660918
O 3.37241594872 3.72066332226 5.97015517883
O 1.52536953012 6.076264908379999 1.07320048659
O 8.27324395388 1.17808272962 3.82812211801
O 1.52862096228 3.72146582474 3.83473320657
O 5.968511371349999 3.37186382879 3.72385094833
O 1.07082472475 1.5236591933899997 6.07726283141
O 3.82708846145 8.27305794681 1.1817086341899998
O 3.83322583745 1.5278958160099998 3.72338857607
O 1.1709945673799995 8.731472409779999 1.53661449738
O 8.623972936819998 3.83468590362 3.3698340939
O 3.72733657018 1.06455388898 6.4280086779
O 1.17734632062 1.06576458262 3.37175372082
O 1.53327239628 1.16856725274 8.73263334117
O 3.36778703488 8.62294938662 3.83832738341
O 6.42732846112 3.72760037538 1.06791314199
O 3.37126250272 1.1773597702599998 1.06733712343
O 8.73206104365 1.5338192762099998 1.17218431167
O 3.83486362025 3.36557138161 8.62552568859
O 1.06606810355 6.42615634819 3.72981923581
O 1.0666576275500002 3.3709297789899995 1.17868175393
O 8.628772362619998 1.06617878022 8.267526162619998
O 1.17579399318 5.96296528638 6.4343065661
O 6.072430359819999 8.733097301019999 3.3761319820999995
O 8.62242060938 8.73188660738 6.43238693918
O 8.266494533719998 8.62908393726 1.07150731883
O 6.4319798951200005 1.17470180338 5.96581327659
O 3.37243846888 6.070050814619999 8.73622751801
O 6.42850442728 8.620291419740001 8.73680353657
O 1.06770588635 8.26383191379 8.63195634833
O 5.96490330975 6.43207980839 1.1786149714099998
O 8.73369882645 3.3714948418099997 6.07432142419
O 8.73310930245 6.42672141101 8.625458906069998
