80   
   
Al -0.075102805 -0.047971705 5.901419305
Al -0.225308415 -0.143915115 17.704257915
In 4.42313039 2.878631895 5.98117783
In 4.27292478 2.782688485 17.784016440000002
Al 3.019019795 0.116763605 5.941812275
Al 2.868814185 0.020820195 17.744650884999995
Al 1.32900779 2.713896585 5.94078486
Ga 1.17880218 2.617953175 17.74362347
Al 0.0 0.0 0.0
Al -0.15020561 -0.09594341 11.80283861
Ga 4.498233195 2.9266036 0.079758525
Al 4.3480275850000005 2.83066019 11.882597135
Al 3.0941226 0.16473531 0.04039297
Al 2.94391699 0.0687919 11.84323158
Al 1.404110595 2.76186829 0.039365555
Al 1.253904985 2.6659248800000004 11.842204165
Al -0.132842342453 1.7621692707909995 2.963487754562
Ga -0.283047952453 1.666225860791 14.766326364562
In -1.822854347453 4.359302250791 2.962460339562
Al -1.973059957453 4.263358840791 14.765298949562
Al 2.961280257547 1.926904580791 3.003880724562
Al 2.811074647547 1.830961170791 14.806719334562
Al 1.2712682525469994 4.524037560791 3.002853309562
Al 1.1210626425469994 4.428094150791 14.805691919562
Al 1.386747327453 0.903755609209 8.878716410438
Al 1.236541717453 0.8078121992089999 20.681555020438
Al -0.3032646775469999 3.500888589209 8.877688995437998
Al -0.4534702875469999 3.404945179209 20.680527605438
Al 4.480869927453 1.068490919209 8.919109380438
Al 4.330664317453 0.972547509209 20.721947990438
Al 2.790857922453 3.665623899209 8.918081965438
Al 2.640652312453 3.569680489209 20.720920575438
O -0.157461041932 1.7464441458919997 4.897973002741
O -0.3076666519319999 1.650500735892 16.700811612741
O -1.847473046932 4.343577125892 4.896945587741
O -1.997678656932 4.247633715892 16.699784197741
O 2.936661558068 1.911179455892 4.938365972741
O 2.786455948068 1.815236045892 16.741204582741
O 1.2466495530679995 4.508312435892 4.937338557741
O 1.0964439430679995 4.4123690258920005 16.740177167741
O 1.411366026932 0.919480734108 6.944231162259
O 1.261160416932 0.823537324108 18.747069772259003
O -0.2786459780679999 3.516613714108 6.943203747259
O -0.4288515880679999 3.420670304108 18.746042357259
O 4.505488626932 1.084216044108 6.984624132259
O 4.355283016932001 0.988272634108 18.787462742259002
O 2.815476621932 3.681349024108 6.983596717258999
O 2.665271011932 3.585405614108 18.786435327259003
O 1.362128627974 0.88803048431 10.813201658617
O 1.211923017974 0.79208707431 22.616040268617
O -0.327883377026 3.48516346431 10.812174243617
O -0.4780889870259999 3.38922005431 22.615012853617
O 4.4562512279740005 1.05276579431 10.853594628617
O 4.306045617974 0.95682238431 22.656433238616998
O 2.766239222974 3.64989877431 10.852567213617
O 2.616033612974 3.55395536431 22.655405823617
O -0.108223642974 1.7778943956899995 1.029002506383
O -0.258429252974 1.6819509856899997 12.831841116383
O -1.7982356479740005 4.37502737569 1.027975091383
O -1.9484412579740005 4.27908396569 12.830813701383
O 2.985898957026 1.94262970569 1.069395476383
O 2.835693347026 1.84668629569 12.872234086383001
O 1.2958869520259997 4.53976268569 1.068368061383
O 1.1456813420259997 4.44381927569 12.871206671383
O -0.0375514025 -0.0239858525 2.9507096525
O -0.1877570125 -0.1199292625 14.7535482625
O 4.4606817925 2.9026177475 3.0304681775
O 4.3104761825 2.8066743375 14.8333067875
O 3.0565711975 0.1407494575 2.9911026225
O 2.9063655875 0.0448060475 14.7939412325
O 1.3665591925 2.7378824375 2.9900752075
O 1.2163535825 2.6419390275000003 14.7929138175
O -0.1126542075 -0.0719575575 8.852128957499998
O -0.2628598175 -0.1679009675 20.6549675675
O 4.3855789875 2.8546460425 8.9318874825
O 4.2353733775 2.7587026325 20.7347260925
O 2.9814683925 0.0927777525 8.8925219275
O 2.8312627825 -0.0031656575 20.6953605375
O 1.2914563874999998 2.6899107325 8.891494512499998
O 1.1412507774999998 2.5939673225 20.6943331225
