80   
   
Al 6.805838250000001 2.26975503 6.768481177499999
Al 2.265812835 6.780833905000001 6.794437082499999
Al 6.7754155 6.804858190000001 2.2524109025
Al 6.7915999650000005 6.795191625000001 6.777998212499999
Al 2.2496283700000004 6.7905004700000005 2.2688497725
Al 6.7896537850000005 2.279421595 2.2428938675
Al 2.28005112 2.25539731 6.784920047499999
Al 2.263866655 2.265063875 2.2593327375
Ga 6.79159507838 4.229576921540001 4.50979888162
Al 2.2353851983800004 8.75032236154 0.01016747662
Al 6.77347420662 4.854702863460001 -0.01449411162
Al 4.51951362388 6.79350337392 4.21568405542
Al 0.02414924388 2.2440424939200003 8.748193200419998
In -0.00407241888 6.777831001080001 4.84760279958
Al 4.228072017660001 4.52431814254 6.78257697316
Al 8.75191296766 0.02290583254 2.23103375816
Al 4.8578173523400014 0.00083419746 6.77082425184
Ga 2.26387154162 4.830678578460001 4.527532068379999
Al 6.78771249162 0.3292662684600001 -0.02401114662
Al 2.24962348338 4.224885766540001 0.00065044162
Al 4.535952996120001 2.26675212608 4.82164689458
Al -0.02025688388 6.787497566080001 0.32201548958
Al 0.00796477888 2.25370905892 4.22260589042
Al 4.827394602340001 4.535937357460001 2.25475397684
Al 0.3320302223400001 -0.01352352254 6.78726312184
Al 4.226125837660001 0.00854811254 2.24747262816
Al 2.27810982662 0.30524198346 4.518015033379999
Al 4.51976853112 2.2764186910800004 0.29605958458
Al 0.3016074723400001 4.52157963746 2.27119284684
Al 6.77735679338 8.75501351654 4.51931591662
Al 4.53569808888 6.78383680892 8.741271365419998
Al 8.75385914766 4.538675862540001 6.76613810316
O 5.622075720410001 3.5440124568100004 5.92462867329
O 3.4415449718500004 8.058922717770002 7.6436571944499985
O 7.953092670750002 5.534235391630001 1.3946425781499998
O 5.621953186990001 5.513468183790001 7.630398929109998
O 5.93283349279 5.62281945261 3.52924260238
O 7.65754829547 3.44634182473 8.04408072046
O 1.40669888133 7.95747413967 5.52378639774
O 7.641585880410002 5.62400333299 5.49621765442
O 3.5405536423400004 5.93661400908 5.611359417979999
O 8.05321863398 7.65717584 3.42621704434
O 5.53645103782 1.4124107662 7.947980436859998
O 5.50844323586 7.64443813472 5.60777047582
O 3.4333908995900004 5.51624304319 3.1127022767099994
O 5.61392164815 1.0013327822300002 1.3936737555499998
O 1.10237394925 3.5260201083700005 7.6426883718499985
O 3.433513433010001 3.54678731621 1.4069320208899998
O 3.12263312721 3.4374360473900003 5.508088347619999
O 1.3979183245300002 5.61391367527 0.99325022954
O 7.64876773867 1.10278136033 3.51354455226
O 1.4138807395900002 3.4362521670100006 3.54111329558
O 5.51491297766 3.12364149092 3.42597153202
O 1.0022479860200002 1.4030796600000002 5.61111390566
O 3.5190155821800007 7.6478447338 1.08935051314
O 3.5470233841400005 1.41581736528 3.42956047418
O 1.06586584041 8.064757896810002 1.4249972682899998
O 7.965385921850001 3.55751040777 3.09211397945
O 3.4577282907500004 0.98477451163 5.92715172315
O 1.09421987699 0.98334043379 3.1117334541099995
O 1.43746911279 1.07335857261 8.06175174738
O 3.10133841547 7.96708726473 3.54444931546
O 5.930539831330001 3.4560618296700003 0.97224318274
O 3.11385257041 1.09387558299 0.97755217942
O 8.064394592340001 1.43520169908 1.0598162029799998
O 3.5578542539800004 3.10771496 7.958726189339998
O 0.98024115782 5.9331562062000005 3.44834903186
O 0.9807099258600002 3.11431038472 1.0891050008199998
O 7.98960077959 0.99549760319 7.612333681709998
O 1.09008069815 5.5027450922300005 5.94521697055
O 5.59773832925 8.075480988370002 3.11017922685
O 7.961246743010002 8.076915066210002 5.92559749589
O 7.61799750721 7.986896927390003 0.97557920262
O 5.954128204530001 1.0931682352700005 5.49288163454
O 3.12492678867 5.60419367033 8.065087767259998
O 5.941614049590001 7.966379917010002 8.059778770579998
O 0.99107202766 7.62505380092 7.97751474702
O 5.49761236602 5.95254054 1.07860476066
O 8.07522546218 3.1270992938 5.58898191814
O 8.074756694139998 5.945945115280001 7.9482259491799985
