40   
   
In 8.439011228696204 -0.0349854211460437 13.88990790340617
Al 5.1183169 0.02039194 -0.060061905
Ga 9.361813423803792 1.5218293048960438 2.330328076593829
In 4.243496523803793 1.5014373648960435 2.3903899815938288
In 5.0825059375 -0.00659709875 5.414290275
Al 1.6782526963037927 -0.0141941613539563 4.237808886593829
Al -0.04774795 -0.035985385 7.29913624
In 8.498696166196206 0.0099963101039563 4.765987603406171
In 2.50555889 1.470649795 7.276501395
Al 7.623875789999999 1.491041735 7.21643949
Al 8.462885203696207 -0.0169927286460437 10.240339783406169
Al 5.0586319625 -0.02458979125 9.063858395
Al 3.332631316196207 -0.0463810148960437 12.125185748406171
Al 1.6424417338037929 -0.0411832001039563 9.712161066593827
Al 5.885938156196207 1.4602541651039562 12.102550903406172
Ga 11.004255056196206 1.4806461051039563 12.042488998406169
O 3.4723383405000003 0.00774900375 1.2000110654
O 1.6190452383037928 -0.0588160387539563 13.288737824193827
O 5.9235129069 1.45411877655 1.1782816142
O 11.0413616781 1.59422585335 1.1188113978
O 8.522092661696206 0.0276291487539563 1.1894108458061712
O 6.6687995595 -0.03893589375 13.2781376046
O 9.324238673099998 1.52796469345 13.2545973658
O 4.2063899019 1.38785761665 13.3140675822
O 6.852717606696206 -0.0026466261460437 6.026060573806172
O 5.0949204045 0.00275910135 3.5165148526
O 9.303892173096209 1.4437231466539562 6.004331122606171
O 4.1851071442962064 1.543046343453956 6.064984716206172
O 1.6658382293037928 -0.0235503614539563 6.1355843089938285
O 10.144674725696207 0.0226392463539563 3.5059146330061712
O 12.800113839296207 1.5895398335539563 3.482374394206171
O 7.682265068096206 1.4494327567539564 3.541844610606171
O -0.003536825696207 -0.0538261363539563 10.972234036993827
O 8.475299670696204 -0.0076365285460437 8.34256436100617
O 2.447637740703793 1.3925436364460435 10.950504585793826
O 7.565486511903794 1.5326507132460436 10.891034369393827
O 5.0462174955 -0.03394599135 10.9616338174
O 3.2884202933037927 -0.0285402638539563 8.45208809619383
O 5.943859406903792 1.5383603233460437 8.42854785739383
O 11.062644435703792 1.4390371265460438 8.36789426379383
