80   
   
In 7.1737024675 2.38938101 7.1571281975
Al 2.3894074275 7.15909927 7.171517532499999
Al 7.1588962625 7.17301045 2.3865653875
In 7.1665740675 7.16635317 7.1636619075
In 2.3817296225 7.165756549999999 2.3944210125
In 7.1660246625 2.39603829 2.3800316775
Al 2.3965358275 2.38212711 7.1649838225
Al 2.3888580225 2.38878439 2.3878873025
In 7.1667840962 4.45636162312 4.77140250022
Al 2.3748112512 9.232737163119996 0.00869531522
Al 7.158136828799999 5.11268711688 -0.00480543522
In 4.77362975426 7.16650755504 4.45419889664
Ga 0.01126931926 2.37562421504 9.232617331639998
In -0.00249270426 7.15834826496 5.11173964836
Al 4.45670761598 4.7737468748 7.1648570475
Al 9.23332485098 0.0106858948 2.3733711925
Al 5.11353067902 -0.0022387548 7.1572549725
Al 2.3886479938000003 5.09877593688 4.78014670978
Al 7.165265228799999 0.33571495688 -0.01133914522
In 2.3819396512 4.45576500312 0.00216160522
Al 4.78180233574 2.38863000496 5.09735031336
Ga -0.01017050926 7.16500554496 0.33464312836
In 0.00359151426 2.38228149504 4.45552081164
Ga 5.09872447402 4.781390685199999 2.3866921625
In 0.33636403902 -0.0094926548 7.1651105975
Al 4.45615821098 0.0034319948 2.3812268175
Al 2.3957763938000003 0.3218037768800001 4.77361299978
In 4.77412453074 2.39528728496 0.32025379336
In 0.32155783402 4.7741367852 2.3945477875
Al 7.1596556962 9.233333783119997 4.77793621022
In 4.78130755926 7.15985027504 9.23129541664
Al 9.23387425598 4.7810007748 7.1570014225
O 5.92818550496 3.73585271376 6.26291902046
O 3.63090397244 8.506839864479998 8.06941172198
O 8.40152637036 5.82904188352 1.48458627302
O 5.92796437724 5.81610943824 8.061956009539998
O 6.26480745919 5.92775660224 3.73348469904
O 8.072121552829998 3.63088015184 8.50449132324
O 1.4872815741699998 8.401625651359998 5.82755193596
O 8.064369638809998 5.92758149456 5.813345066759999
O 3.73591232988 6.26480499652 5.92602881357
O 8.506713345079998 8.071395923079999 3.62762353393
O 5.82987784352 1.4875337513199998 8.40016024147
O 5.81607670652 8.064109229079998 5.92506043603
O 3.62724658504 5.81928484624 3.28863018954
O 5.92452811756 1.04829769552 1.48213748802
O 1.1539057196399998 3.72609567648 8.066962936979998
O 3.62746771276 3.73902812176 1.48959320046
O 3.29062463081 3.62738095776 5.818064510959999
O 1.48331053717 5.92425740816 1.04705788676
O 8.06815051583 1.15351190864 3.72399727404
O 1.49106245119 3.62755606544 3.73820414324
O 5.8195197601199995 3.29033256348 3.62552039643
O 1.0487187449200002 1.4837416369199998 5.92392567607
O 3.72555424648 8.067603808679998 1.1513889685299998
O 3.73935538348 1.49102833092 3.62648877397
O 1.1362126599599998 8.512228253759998 1.5002118354599998
O 8.40752120744 3.74377888448 3.2779258669799995
O 3.63916593536 1.03815854352 6.26300470802
O 1.15024833224 1.03854065824 3.28618140454
O 1.50244702419 1.13687326224 8.51190313404
O 3.28014870783 8.407255691839998 3.74178413824
O 6.2638988091700005 3.63856467136 1.03606608096
O 3.28665359381 1.1500127145599996 1.03757046176
O 8.512529564880001 1.5017440165199998 1.13454295857
O 3.74435291008 3.2805125830799997 8.406041968929998
O 1.0379049985200002 6.26390929132 3.63745305647
O 1.03836066152 3.2865404490799994 1.1492858310299998
O 8.41921943004 1.04290930624 8.05133737454
O 1.14791088256 5.811358675519999 6.27362334302
O 5.91626615464 8.51697901648 3.28854450198
O 8.405183757759998 8.51659690176 6.26536780546
O 8.05298506581 8.418264297759999 1.03964607596
O 6.2752833821700005 1.1478818681599996 5.809765071759999
O 3.2915332808299995 5.916572888639999 8.515483129039998
O 6.26877849619 8.405124845439998 8.513978748239998
O 1.04290252512 8.05339354348 8.41700625143
O 5.811079179919999 6.274624976919999 1.1455072410699998
O 8.517527091480002 3.2912282686799994 5.91409615353
O 8.517071428479998 6.26859711092 8.40226337897
