80   
   
In 1.69959290799 7.6128900793 6.62965352897
In 6.9137813579900005 7.5868137443 6.60226104897
In 3.603863950609999 1.31836586946 1.8596073035100005
Ga 8.81805240061 1.2922895344599998 1.83221482351
Ga 1.00573969519 3.13607505484 1.8683747414900005
In 6.21992814519 3.10999871984 1.84098226149
Ga 4.297717163410001 5.7951808939200005 6.62088609099
Ga 9.51190561341 5.7691045589200005 6.59349361099
Al 0.96255874237 5.873914166555001 -0.0209584605
Al 6.176747192370001 5.847837831555001 -0.0483509405
Ga 4.321126447629999 3.0470654584450005 4.7460414305
Ga 9.53531489763 3.0209891234450006 4.7186489505
Ga 1.7058615572700002 1.4162448769850002 4.76422727234
Ga 6.92005000727 1.390168541985 4.736834792340001
Ga 3.628005532730001 7.530816788015 9.51460661766
Ga 8.84219398273 7.504740453015 9.48721413766
Ga 0.9274475514 0.2896955818800001 9.53886323214
Ga 6.141636001399999 0.26361924688 9.51147075214
Ga 4.4063191748 8.65731391904 4.72086315602
In 9.6205076248 8.63123758404 4.6934706760200005
Ga 1.7796864022 4.739385512940001 4.74529540042
Ga 6.993874852200001 4.713309177940001 4.71790292042
Ga 3.554080324 4.20762398798 9.51443098774
In 8.768268774 4.18154765298 9.48703850774
Ga 3.61818395258 1.405304621585 7.496207323670002
Al 8.83237240258 1.379228286585 7.46881484367
Al 1.6943056480199998 7.530646094375 2.71272867441
In 6.90849409802 7.504569759375 2.68533619441
Ga 4.293140396079999 5.855881148035 2.70357083627
Ga 9.50732884608 5.829804813035 2.67617835627
Ga 1.01934920452 3.0800695679250003 7.50536516181
Ga 6.23353765452 3.0539932329250004 7.47797268181
O 4.39708213526 5.978529974865001 8.49246759895
O 9.611270585259998 5.952453639865001 8.46507511895
O 0.92604602814 2.962950133575 3.74186359417
O 6.14023447814 2.936873798575 3.71447111417
O 3.52594651516 1.5026015457950004 3.732120155790001
O 8.740134965159998 1.4765252107950002 3.704727675790001
O 1.79718164824 7.438878562644998 8.502211037330001
O 7.01137009824 7.412802227645 8.47481855733
O 2.7694130034600004 0.083121661745 5.99470867659
O 7.983601453459999 0.057045326745 5.967316196590001
O 2.5272191167399995 8.844587129575 1.19524203077
O 7.74140756674 8.818510794574998 1.1678495507700002
O 5.11290975096 4.525353760995 1.1933065955900002
O 10.32709820096 4.499277425995 1.16591411559
O 0.18372236924 4.402355030325 5.99664411177
O 5.39791081924 4.376278695325 5.969251631770001
O 0.12100842498 7.391195137195002 1.13541416585
O 5.33519687498 7.365118802195 1.10802168585
O 5.17482078482 1.5360963414850002 5.90167652679
O 10.38900923482 1.510020006485 5.874284046790001
O 2.57456505148 2.9249728097450007 5.911615165250001
O 7.788753501479999 2.898896474745001 5.88422268525
O 2.7212641583200003 6.0023186689350005 1.12547552739
O 7.9354526083199985 5.976242333935001 1.09808304739
O 5.13728606025 7.4511966188 6.048293588050001
O 10.35147451025 7.4251202838 6.02090110805
O 0.16024933415 1.4769816492400003 1.31362463587
O 5.37443778415 1.4509053142400004 1.2862321558700005
O 2.77489254345 2.98272602154 1.29578039417
O 7.98908099345 2.95664968654 1.2683879141700003
O 2.52264285095 5.9454522465 6.066137829750001
O 7.73683130095 5.9193759115 6.03874534975
O 1.93332854015 1.5319560295050003 8.25951160974
O 7.14751699015 1.5058796945050004 8.232119129740001
O 3.38708980065 7.408115648775 3.4589170337
O 8.60127825065 7.382039313775 3.4315245537
O 0.7728906492500001 5.991711425875001 3.4765172753
O 5.98707909925 5.965635090875001 3.4491247953
O 4.54752769155 2.948360252405 8.24191136814
O 9.761716141549998 2.922283917405 8.21451888814
O 4.404269659989999 0.01060803488 8.575451314710001
O 9.61845810999 -0.01546830012 8.54805883471
O 0.91956105001 8.931237222120004 3.7926323912900006
O 6.13374950001 8.905160887120001 3.765239911290001
O 3.5045411915900004 4.469059614500001 3.79108735627
O 8.718729641589999 4.442983279500001 3.7636948762700007
O 1.81928951841 4.4727856425 8.57699634973
O 7.03347796841 4.4467093075 8.549603869730001
