80   
   
Ga 10.81017516323 5.103025e-06 1.19205110098
Ga 10.81016628323 3.101166883025 1.1920641259799998
In 23.04311538323 1.1628025e-05 1.18070117098
Ga 23.043106503230003 3.101173408025 1.1807141959799998
Ga -0.0873202932300001 -2.618025e-06 4.66180963902
Al -0.0873291732300001 3.101159161975 4.66182266402
Al 12.14561992677 3.906975e-06 4.65045970902
Ga 12.14561104677 3.101165686975 4.65047273402
Al 4.69370061323 1.5505827305250002 1.19773257848
Al 4.69369173323 4.651744510525 1.1977456034799998
Al 16.92664083323 1.550589255525 1.18638264848
In 16.92663195323 4.651751035525 1.18639567348
Al 6.02914537677 1.550581534475 4.65614118652
Ga 6.02913649677 4.651743314475 4.65615421152
Ga 18.26208559677 1.550588059475 4.6447912565200005
Al 18.26207671677 4.651749839475 4.64480428152
Al 9.25197973492 1.550583606085 4.01399574099
Ga 9.251970854919998 4.651745386085 4.01400876599
Al 21.48491995492 1.550590131085 4.00264581099
In 21.48491107492 4.651751911085 4.00265883599
In 1.4708662550799998 1.550580658915 1.83987802401
Al 1.4708573750799998 4.651742438915 1.83989104901
Al 13.70380647508 1.550587183915 1.82852809401
In 13.70379759508 4.651748963915 1.82854111901
Al 3.1355140649200006 -5.46415e-07 4.01966419349
Ga 3.1355051849200004 3.101161233585 4.01967721849
Ga 15.368454284919997 5.978585e-06 4.00831426349
Ga 15.36844540492 3.101167758585 4.00832728849
In 7.587340805080002 3.031415e-06 1.83419654651
Ga 7.5873319250800035 3.101164811415 1.83420957151
In 19.82028102508 9.556415e-06 1.82284661651
In 19.82027214508 3.101171336415 1.82285964151
O 9.45673426399 3.630695e-06 2.55371067068
O 9.45672538399 3.101165410695 2.55372369568
O 21.68967448399 1.0155695e-05 2.54236074068
O 21.68966560399 3.101171935695 2.54237376568
O 1.26612060601 -1.145695e-06 3.3001500693199994
O 1.2661117260099997 3.101160634305 3.3001630943199998
O 13.49906082601 5.379305e-06 3.28880013932
O 13.49905194601 3.101167159305 3.28881316432
O 3.3402597139900005 1.550581258195 2.55939214818
O 3.3402508339900003 4.651743038195 2.55940517318
O 15.573199933989997 1.550587783195 2.54804221818
O 15.573191053989996 4.651749563195 2.54805524318
O 7.38258627601 1.5505830068050002 3.29448161682
O 7.3825773960099985 4.651744786805 3.29449464182
O 19.61552649601 1.550589531805 3.28313168682
O 19.61551761601 4.6517513118050005 3.2831447118199995
O 8.8705291222 1.852775e-06 5.21056030475
O 8.870520242199998 3.101163632775 5.21057332975
O 21.1034693422 8.377775e-06 5.19921037475
O 21.1034604622 3.101170157775 5.19922339975
O 1.8523257478 6.32225e-07 0.64330043525
O 1.8523168678 3.101162412225 0.64331346025
O 14.0852659678 7.157225e-06 0.63195050525
O 14.0852570878 3.101168937225 0.63196353025
O 2.7540545722000003 1.550579480275 5.21624178225
O 2.7540456922 4.651741260275 5.21625480725
O 14.986994792199997 1.550586005275 5.20489185225
O 14.986985912199996 4.651747785275 5.20490487725
O 7.968791417800001 1.550584784725 0.63763198275
O 7.9687825378 4.651746564725 0.63764500775
O 20.2017316378 1.550591309725 0.6262820527499999
O 20.2017227578 4.651753089724999 0.6262950777499999
O -1.07306609417 1.55057791438 4.35781264059
O -1.07307497417 4.651739694380001 4.35782566559
O 11.159874125830001 1.55058443938 4.34646271059
O 11.15986524583 4.6517462193800005 4.34647573559
O 11.79591208417 1.55058635062 1.49606112441
O 11.79590320417 4.651748130620001 1.49607414941
O 24.02885230417 1.55059287562 1.48471119441
O 24.02884342417 4.6517546556200005 1.48472421941
O 5.04340845583 2.8688e-07 4.35213116309
O 5.04339957583 3.10116206688 4.35214418809
O 17.27634867583 6.81188e-06 4.34078123309
O 17.27633979583 3.10116859188 4.34079425809
O 5.679446414169999 2.19812e-06 1.50172957691
O 5.679437534169999 3.10116397812 1.50174260191
O 17.912386634169998 8.72312e-06 1.49037964691
O 17.912377754169995 3.10117050312 1.49039267191
