80   
   
Al 1.64873136433 7.4347495925499985 6.49969192618
In 6.73791325433 7.411599737549999 6.47825077618
Ga 3.51496071449 1.2883712006499997 1.8257231247600003
Al 8.60414260449 1.2652213456499997 1.8042819747600003
Al 0.97833942497 3.06356766957 1.83310736878
Al 6.06752131497 3.040417814569999 1.8116662187800003
Al 4.185352653850001 5.65955312363 6.49230768216
Ga 9.27453454385 5.6364032686300005 6.4708665321600005
Al 0.93692411923 5.740722385134999 -0.01470581627
Ga 6.02610600923 5.717572530135 -0.03614696627
Ga 4.21131802577 2.975580119865 4.6542496812700005
Al 9.30049991577 2.952430264865 4.63280853127
Ga 1.65946759261 1.3806879007249997 4.668009290430001
Ga 6.74864948261 1.3575380457249997 4.64656814043
In 3.52798758239 7.352919904274998 9.32653758457
Al 8.617169472390001 7.329770049275 9.30509643457
In 0.89533998669 0.2753228103599999 9.34155039909
Ga 5.98452187669 0.25217295536 9.32010924909
In 4.2920367622499995 8.458250384039998 4.63428646989
Ga 9.38121865225 8.435100529039998 4.612845319890001
Al 1.73008617165 4.62827343914 4.65227430049
Al 6.81926806165 4.60512358414 4.63083315049
Ga 3.45729057729 4.105299755259999 9.32356256849
Al 8.54647246729 4.082149900259999 9.30212141849
Al 3.52314448644 1.368497174895 7.345107092190002
Al 8.612326376440002 1.345347319895 7.32366594219
Ga 1.64760593778 7.357738572304998 2.66420850055
Ga 6.73678782778 7.334588717304999 2.64276735055
Ga 4.18485848714 5.7222348987450005 2.65655999269
Al 9.274040377139999 5.699085043745001 2.63511884269
Ga 0.98589193708 3.0040008484550005 7.352755600050002
Ga 6.07507382708 2.9808509934550003 7.33131445005
O 4.28034357466 5.837167409095 8.32519344277
O 9.36952546466 5.814017554095 8.303752292770001
O 0.8987200119200002 2.892737061705 3.66738278809
O 5.98790190192 2.8695872067050003 3.645941638090001
O 3.43691945104 1.466772581185 3.6593378844700006
O 8.526101341039999 1.443622726185 3.63789673447
O 1.74214413554 7.263131889614998 8.33323834639
O 6.831326025539999 7.239982034614998 8.311797196390001
O 2.69684057178 0.077308557215 5.872891641130001
O 7.786022461779998 0.054158702215 5.8514504911300005
O 2.46151853496 8.643458715184998 1.1802430004500002
O 7.55070042496 8.620308860184998 1.1588018504500002
O 4.98709277728 4.423638327465 1.17748337363
O 10.076274667280002 4.400488472465001 1.15604222363
O 0.17126632946 4.297128944935 5.87565126795
O 5.26044821946 4.273979089935 5.85421011795
O 0.11371074796 7.222118053644999 1.11797460973
O 5.20289263796 7.198968198644999 1.09653345973
O 5.0440209503 1.4983723339549997 5.78547998369
O 10.1332028403 1.4752224789549997 5.764038833690001
O 2.50550588126 2.854490416795 5.79365701923
O 7.594687771260001 2.8313405617950003 5.77221586923
O 2.652225817 5.865999970805 1.10979757419
O 7.741407706999999 5.842850115805001 1.08835642419
O 5.00464658312 7.278756880189999 5.93385985343
O 10.09382847312 7.25560702519 5.91241870343
O 0.15441835816 1.44232188761 1.28766484233
O 5.24360024816 1.41917203261 1.2662236923300003
O 2.70571643896 2.91498291081 1.27413646403
O 7.794898328959999 2.8918330558100003 1.25269531403
O 2.45334850232 5.806095856990001 5.947388231730001
O 7.54253039232 5.78294600199 5.92594708173
O 1.87786028207 1.490865242845 8.090884548210001
O 6.96704217207 1.467715387845 8.06944339821
O 3.29908580089 7.238104741754999 3.3965215201100003
O 8.38826769089 7.214954886755 3.37508037011
O 0.74818225749 5.852751715655 3.40988473351
O 5.83736414749 5.829601860655 3.3884435835100004
O 4.42876382547 2.876218268945 8.077521334810001
O 9.51794571547 2.853068413945 8.05608018481
O 4.28988724078 0.00495229093 8.40156139111
O 9.37906913078 -0.01819756407 8.380120241110001
O 0.88972532822 8.725194454070001 3.721984881890001
O 5.97890721822 8.702044599069998 3.7005437318900007
O 3.4146683107 4.36568127099 3.719489518910001
O 8.5038502007 4.34253141599 3.69804836891
O 1.7649442583 4.364465474009999 8.404056754090002
O 6.8541261483 4.34131561901 8.38261560409
