80   
   
Al 10.693845000495 -1.66996e-06 1.238457088975
In 10.693838360494999 3.15334290504 1.238475493975
In 22.828835855495 -2.25996e-06 1.232093963975
In 22.828829215495002 3.15334231504 1.232112368975
In -0.2020818854950001 -4.45004e-06 4.824648906025001
In -0.2020885254950001 3.15334012496 4.824667311025
In 11.932908969505 -5.04004e-06 4.818285781025001
In 11.932902329505 3.15333953496 4.818304186025
In 4.626346252995 1.57667091254 1.241647853975
In 4.626339612995 4.73001548754 1.2416662589749998
In 16.761337107994994 1.57667032254 1.235284728975
In 16.761330467995 4.73001489754 1.235303133975
Al 5.865410222005 1.57666754246 4.821476546025
In 5.865403582005 4.73001211746 4.8214949510250005
In 18.000401077004998 1.57666695246 4.815113421025
In 18.000394437005 4.73001152746 4.815131826025
Al 9.078269759415 1.5766679977300002 4.158313630695
Al 9.078263119415 4.73001257273 4.158332035695
Al 21.213260614415002 1.5766674077300002 4.151950505695
Al 21.213253974415 4.73001198273 4.151968910695
Al 1.413486715585 1.57667045727 1.904810769305
Al 1.413480075585 4.730015032270001 1.904829174305
In 13.548477570585002 1.57666986727 1.898447644305
Al 13.548470930585 4.730014442270001 1.898466049305
Al 3.010777651915 -3.99477e-06 4.161485990695001
Al 3.0107710119150006 3.15334058023 4.161504395695
Al 15.145768506915001 -4.58477e-06 4.1551228656950006
In 15.145761866915002 3.15333999023 4.155141270695
Al 7.480985463085 -2.12523e-06 1.901620004305
Al 7.480978823085 3.15334244977 1.901638409305
Al 19.615976318085 -2.71523e-06 1.895256879305
Al 19.615969678084998 3.1533418597700003 1.895275284305
O 9.317546914704998 -2.90454e-06 2.647095701065
O 9.317540274704996 3.15334167046 2.647114106065
O 21.452537769705 -3.49454e-06 2.640732576065
O 21.452531129704997 3.15334108046 2.640750981065
O 1.1742162002949998 -3.21546e-06 3.4160102939349994
O 1.1742095602949998 3.15334135954 3.4160286989349995
O 13.309207055295 -3.80546e-06 3.4096471689349994
O 13.309200415295 3.15334076954 3.4096655739349995
O 3.250048167205001 1.5766696779600002 2.650286466065
O 3.2500415272050005 4.73001425296 2.650304871065
O 15.385039022204996 1.5766690879600005 2.643923341065
O 15.385032382204999 4.73001366296 2.643941746065
O 7.241708307795002 1.57666877704 3.412837933935
O 7.241701667795 4.73001335204 3.412856338935
O 19.376699162795003 1.57666818704 3.406474808935
O 19.376692522795 4.73001276204 3.406493213935
O 8.670244675324998 -5.41435e-06 5.396514307425
O 8.670238035325 3.1533391606500003 5.396532712425
O 20.805235530325 -6.00435e-06 5.390151182425
O 20.805228890324997 3.1533385706500003 5.390169587425
O 1.821518439675 -7.0565e-07 0.666591687575
O 1.821511799675 3.15334386935 0.666610092575
O 13.956509294675 -1.29565e-06 0.660228562575
O 13.956502654675 3.15334327935 0.660246967575
O 2.602745927825 1.5766671681500002 5.399705072425
O 2.602739287825 4.73001174315 5.399723477425
O 14.737736782824996 1.5766665781500002 5.393341947425
O 14.737730142824999 4.73001115315 5.393360352425
O 7.889010547175001 1.57667128685 0.663419327575
O 7.889003907175 4.730015861850001 0.663437732575
O 20.024001402175003 1.5766706968500002 0.657056202575
O 20.023994762175 4.730015271850001 0.657074607575
O -1.1723815674 1.57666817635 4.50959930616
O -1.1723882074 4.73001275135 4.50961771116
O 10.9626092876 1.57666758635 4.50323618116
O 10.9626026476 4.73001216135 4.50325458616
O 11.6641380424 1.5766702786500002 1.55352509384
O 11.6641314024 4.73001485365 1.55354349884
O 23.799128897399996 1.5766696886500002 1.54716196884
O 23.7991222574 4.73001426365 1.54718037384
O 4.8951171801 -4.40615e-06 4.50640854116
O 4.8951105401 3.15334016885 4.50642694616
O 17.0301080351 -4.99615e-06 4.50004541616
O 17.0301013951 3.1533395788500003 4.50006382116
O 5.596645934900001 -1.71385e-06 1.55669745384
O 5.596639294900001 3.1533428611500005 1.55671585884
O 17.731636789899998 -2.30385e-06 1.55033432884
O 17.7316301499 3.15334227115 1.55035273384
