80   
   
In 1.6648387169099998 7.5031180178499985 6.550222279449999
Ga 6.80328906691 7.480802057849998 6.527246344449999
In 3.54919795219 1.30111467145 1.83935994023
Al 8.68764830219 1.27879871145 1.81638400523
In 0.98764971851 3.09152061189 1.84690352039
Ga 6.12610006851 3.06920465189 1.82392758539
Ga 4.22638695059 5.71271207741 6.542678699289999
In 9.364837300590002 5.69039611741 6.519702764289999
In 0.94478967893 5.79177355192 -0.016961241225
Ga 6.083240028930001 5.76945759192 -0.039937176225
Al 4.252684156069999 3.00435418308 4.690389746225
Ga 9.39113450607 2.98203822308 4.667413811225
Ga 1.6764661236300002 1.3948110506 4.705470621005
Ga 6.81491647363 1.3724950906 4.682494686005
Al 3.5630453613700004 7.421887634399998 9.399820103995
Ga 8.70149571137 7.3995716744 9.376844168995
In 0.9063954109500002 0.28104604437 9.4179846006
Ga 6.04484576095 0.2587300843699999 9.3950086656
Al 4.33303199875 8.53561149873 4.66844239996
Ga 9.47148234875 8.513295538729999 4.645466464959999
Al 1.74708477335 4.67117986193 4.68852210226
Ga 6.88553512335 4.64886390193 4.66554616726
Ga 3.49234263635 4.14547768117 9.397904898299998
Al 8.63079298635 4.12316172117 9.374928963299999
Ga 3.558888851920001 1.38378374559 7.404071364474999
Al 8.697339201919998 1.36146778559 7.381095429474998
Ga 1.66271459418 7.42415171471 2.683246054805
Al 6.80116494418 7.401835754709999 2.6602701198049994
Al 4.22487090242 5.77467630579 2.675390047925
Al 9.36332125242 5.7523603457900006 2.6524141129249994
Al 0.99673254368 3.0332591545100005 7.411927371354999
Al 6.135182893680001 3.0109431945100003 7.388951436354998
O 4.32274007914 5.89252777669 8.390542570114999
O 9.461190429139998 5.87021181669 8.367566635115
O 0.9077753487600002 2.91976872501 3.696329639805
O 6.046225698760001 2.89745276501 3.673353704805
O 3.4708437688400005 1.48168911337 3.688004992845
O 8.609294118839998 1.45937315337 3.665029057845
O 1.75967165906 7.33060738833 8.398867217075
O 6.89812200906 7.308291428329999 8.375891282074999
O 2.7244701575400008 0.08049667253 5.920403230475
O 7.862920507539998 0.05818071253 5.897427295475
O 2.48384939116 8.720938367569998 1.186445727285
O 7.622299741160002 8.698622407569998 1.163469792285
O 5.0347563200400005 4.46424812553 1.184369614725
O 10.17320667004 4.44193216553 1.161393679725
O 0.17356322866 4.337186914569999 5.922479343035
O 5.31201357866 4.31487095457 5.899503408035
O 0.11359316472 7.286501193489999 1.124762133505
O 5.25204351472 7.264185233489998 1.101786198505
O 5.09405378158 1.5146047114099996 5.831177028735
O 10.23250413158 1.4922887514099996 5.808201093735
O 2.53068132422 2.8822190572899995 5.839657889054999
O 7.66913167422 2.85990309729 5.816681954055
O 2.6769656220800004 5.91888684761 1.1162812731849998
O 7.81541597208 5.89657088761 1.093305338185
O 5.053127652 7.346245266679999 5.97889071809
O 10.191578002 7.323929306679998 5.95591478309
O 0.1559485744 1.45556005052 1.29773175963
O 5.294398924400001 1.43324409052 1.27475582463
O 2.7316345416 2.94178896792 1.28292425823
O 7.8700848916 2.91947300792 1.25994832323
O 2.4774416848 5.86001634928 5.99369821949
O 7.6158920348 5.83770038928 5.97072228449
O 1.89784597345 1.50714527854 8.156378836084999
O 7.036296323450001 1.48482931854 8.133402901085
O 3.33039942135 7.304040391859998 3.421172813955
O 8.468849771350001 7.281724431859998 3.398196878955
O 0.7550935007500001 5.90589305666 3.435785048655
O 5.89354385075 5.88357709666 3.412809113655
O 4.473151894050001 2.90529261374 8.141766601385
O 9.61160224405 2.88297665374 8.118790666384998
O 4.333616382260001 0.00866587066 8.46944858967
O 9.47206673226 -0.01365008934 8.44647265467
O 0.89748757274 8.803918624339996 3.74946969133
O 6.03593792274 8.781602664339998 3.72649375633
O 3.4477864270600005 4.40629785078 3.74770600549
O 8.58623677706 4.38398189078 3.72473007049
O 1.7833175279400002 4.40628664422 8.47121227551
O 6.921767877940001 4.38397068422 8.44823634051
