40   
   
Al 8.204060522555219 0.0044005849696651 13.531628860467906
Ga 4.974423285 0.017282795 -0.03960615
Al 9.099637231194782 1.4800977750303348 2.294874587032095
Ga 4.125213946194782 1.4628149800303347 2.334480737032095
Al 4.94051875125 0.007733375 5.2812091725000005
Al 1.6317709349447818 -0.0016663949696651 4.125209914532095
Al -0.045206045 -0.01273256 7.09442043
Al 8.26056807880522 0.0203162849696651 4.663603322967905
Al 2.436935455 1.448565675 7.07729636
Al 7.41135874 1.46584847 7.03769021
Ga 8.226663545055219 0.0107668649696651 9.984418645467905
Ga 4.917915728750001 0.001367095 8.8284193875
Ga 3.2409387488052186 -0.0096990700303349 11.797629902967904
Ga 1.5978664011947816 -0.0112158149696651 9.446025237032096
Ga 5.723080248805219 1.451599164969665 11.780505832967906
Ga 10.69750353380522 1.468881959969665 11.740899682967903
O 3.3749228061500003 0.0095877654 1.1791192911
O 1.5757154391447816 -0.0174547693696651 12.922291247732096
O 5.75777864615 1.4124340709999998 1.1626801839
O 10.731796319750002 1.545929413 1.1232883543
O 8.28271904085522 0.0265552393696651 1.187337312267905
O 6.483511673850001 -0.0004872954 12.9305092689
O 9.064938833850002 1.5192628689999998 12.9127002361
O 4.09092116025 1.3857675269999996 12.9520920657
O 6.661067599955218 0.0126212553696651 5.882328764067905
O 4.952272322950001 0.0110438406 3.4366598607000003
O 9.043923439955218 1.4154675609696648 5.865889656867905
O 4.0690945435552175 1.5143973129696653 5.905710127267906
O 1.6200173632447816 -0.0049768605696651 5.969759226332096
O 9.86006855765522 0.0280113145696651 3.444877881867905
O 12.441495717655219 1.547761478969665 3.4270688490679047
O 7.467478044055218 1.414266136969665 3.4664606786679046
O -0.0016340776552184 -0.0189108445696651 10.664750678132096
O 8.238417116755219 0.0140773305696651 8.139869333667905
O 2.3812217623447816 1.3839354610303347 10.648311570932098
O 7.355239435944783 1.517430803030335 10.608919741332096
O 4.906162157050001 -0.0019433706 10.6729686993
O 3.197366880044782 -0.0035207853696651 8.227299795932094
O 5.778794040044782 1.5162293790303347 8.209490763132097
O 10.753622936444781 1.4172996270303349 8.169670292732096
