80   
   
Ga 10.83853364849 7.35809e-06 1.17057547863
Ga 10.83852345349 3.06619002309 1.17058960363
Al 23.087974858490004 1.611809e-05 1.16168339863
Ga 23.08796466349 3.06619878309 1.16169752363
Al -0.03401151849 -1.54809e-06 4.57008551137
Al -0.03402171349 3.06618111691 4.57009963637
Al 12.21542969151 7.21191e-06 4.56119343137
Ga 12.21541949651 3.06618987691 4.56120755637
In 4.713807945989999 1.53309431059 1.17502858113
Ga 4.71379775099 4.59927697559 1.17504270613
Al 16.963249155990002 1.53310307059 1.16613650113
Al 16.963238960990005 4.59928573559 1.16615062613
Al 6.0907039890100005 1.53309416441 4.565646533870001
Al 6.090693794010001 4.59927682941 4.565660658870001
Ga 18.34014519901 1.53310292441 4.55675445387
Al 18.34013500401 4.59928558941 4.556768578870001
In 9.310560471229998 1.53309667596 3.93672222924
Al 9.310550276229998 4.599279340960001 3.93673635424
Al 21.56000168123 1.53310543596 3.927830149240001
In 21.55999148623 4.599288100960001 3.92784427424
Ga 1.49395146377 1.53309179904 1.80395288576
Ga 1.49394126877 4.59927446404 1.80396701076
In 13.74339267377 1.53310055904 1.7950608057600002
Al 13.743382478770002 4.59928322404 1.79507493076
Ga 3.1858449637300006 9.6346e-07 3.94116120674
Ga 3.185834768730001 3.06618362846 3.94117533174
Ga 15.435286173729997 9.72346e-06 3.932269126740001
Ga 15.435275978729997 3.06619238846 3.93228325174
Ga 7.618677166270001 4.84654e-06 1.7994997832600002
Ga 7.6186669712700015 3.06618751154 1.79951390826
Ga 19.86811837627 1.360654e-05 1.79060770326
Ga 19.86810818127 3.06619627154 1.7906218282600002
O 9.498858242710002 5.95537e-06 2.50520094143
O 9.49884804771 3.06618862037 2.50521506643
O 21.74829945271 1.471537e-05 2.49630886143
O 21.74828925771 3.06619738037 2.49632298643
O 1.3056638872900002 -1.4537e-07 3.23546004857
O 1.30565369229 3.06618251963 3.23547417357
O 13.55510509729 8.61463e-06 3.22656796857
O 13.55509490229 3.06619127963 3.22658209357
O 3.3741325402100006 1.53309290787 2.50965404393
O 3.374122345210001 4.59927557287 2.50966816893
O 15.62357375021 1.5331016678699998 2.50076196393
O 15.62356355521 4.59928433287 2.50077608893
O 7.43037939479 1.53309556713 3.23102107107
O 7.43036919979 4.5992782321300005 3.23103519607
O 19.67982060479 1.53310432713 3.22212899107
O 19.67981040979 4.599286992130001 3.22214311607
O 8.94230542915 4.6891e-06 5.109677345500001
O 8.94229523415 3.0661873541 5.1096914705000005
O 21.19174663915 1.34491e-05 5.1007852655
O 21.19173644415 3.0661961141 5.100799390500001
O 1.86221670085 1.1209e-06 0.6309836445
O 1.86220650585 3.0661837859 0.6309977695
O 14.11165791085 9.8809e-06 0.6220915645
O 14.11164771585 3.0661925459 0.6221056895
O 2.8175797266500004 1.5330916415999998 5.114130448
O 2.8175695316500007 4.599274306600001 5.114144573
O 15.067020936649996 1.5331004015999998 5.105238368
O 15.06701074165 4.599283066600001 5.105252493
O 7.98693220835 1.5330968334 0.626544667
O 7.98692201335 4.5992794984 0.626558792
O 20.23637341835 1.5331055934 0.617652587
O 20.236363223350004 4.5992882584 0.617666712
O -1.0245822091 1.53308917569 4.27188942519
O -1.0245924041 4.59927184069 4.27190355019
O 11.224859000899999 1.53309793569 4.2629973451900005
O 11.2248488059 4.59928060069 4.26301147019
O 11.8290941441 1.53309929931 1.46878568981
O 11.8290839491 4.59928196431 1.46879981481
O 24.0785353541 1.5331080593100002 1.4598936098100002
O 24.078525159100003 4.59929072431 1.45990773481
O 5.1001434934 2.22319e-06 4.26743632269
O 5.1001332984 3.06618488819 4.26745044769
O 17.3495847034 1.098319e-05 4.25854424269
O 17.3495745084 3.06619364819 4.25855836769
O 5.7043786366 3.58681e-06 1.47322466731
O 5.704368441600001 3.06618625181 1.47323879231
O 17.9538198466 1.234681e-05 1.4643325873100002
O 17.9538096516 3.06619501181 1.46434671231
