80   
   
Al 10.77400299907 2.84931e-06 1.20902150419
In 10.77399500907 3.12295510931 1.20903559919
Al 22.97833062907 7.03931e-06 1.19830381419
Ga 22.97832263907 3.12295929931 1.19831790919
Ga -0.1293378890700001 -3.33931e-06 4.725450485810001
Al -0.1293458790700001 3.12294892069 4.725464580810001
Al 12.07498974093 8.5069e-07 4.714732795810001
Al 12.07498175093 3.12295311069 4.714746890810001
In 4.67183518907 1.56147688431 1.21438739669
Ga 4.671827199069999 4.684429144309999 1.21440149169
In 16.87616281907 1.56148107431 1.20366970669
Al 16.87615482907 4.68443333431 1.20368380169
Al 5.97282193093 1.5614748856899998 4.72009868831
Al 5.972813940929999 4.68442714569 4.72011278331
Ga 18.17714956093 1.56147907569 4.70938099831
In 18.17714157093 4.68443133569 4.70939509331
In 9.19390705311 1.56147644331 4.069393590690001
In 9.19389906311 4.68442870331 4.069407685690001
Al 21.39823468311 1.56148063331 4.058675900690001
Al 21.39822669311 4.68443289331 4.058689995690001
In 1.45075006689 1.56147532669 1.86509249431
Al 1.45074207689 4.68442758669 1.86510658931
In 13.65507769689 1.56147951669 1.85437480431
Ga 13.65506970689 4.68443177669 1.85438889931
In 3.09174723311 -1.78169e-06 4.07474538819
Al 3.09173924311 3.12295047831 4.07475948319
In 15.296074863109997 2.40831e-06 4.06402769819
Al 15.296066873109996 3.12295466831 4.06404179319
Ga 7.55291787689 1.29169e-06 1.85972660181
In 7.55290988689 3.12295355169 1.85974069681
Ga 19.75724550689 5.48169e-06 1.84900891181
Ga 19.75723751689 3.12295774169 1.84902300681
O 9.41140642877 1.41997e-06 2.58918436053
O 9.41139843877 3.12295367997 2.58919845553
O 21.61573405877 5.60997e-06 2.57846667053
O 21.61572606877 3.12295786997 2.57848076553
O 1.23325868123 -1.90997e-06 3.34528762947
O 1.23325069123 3.12295035003 3.34530172447
O 13.43758631123 2.28003e-06 3.33456993947
O 13.43757832123 3.12295454003 3.33458403447
O 3.30923861877 1.5614754549699998 2.59455025303
O 3.30923062877 4.68442771497 2.59456434803
O 15.51356624877 1.56147964497 2.58383256303
O 15.51355825877 4.68443190497 2.58384665803
O 7.33541850123 1.56147631503 3.33993583197
O 7.33541051123 4.684428575029999 3.33994992697
O 19.53974613123 1.56148050503 3.32921814197
O 19.53973814123 4.68443276503 3.32923223697
O 8.80251392825 -6.6655e-07 5.28226954405
O 8.802505938249999 3.12295159345 5.28228363905
O 21.00684155825 3.52345e-06 5.27155185405
O 21.00683356825 3.12295578345 5.27156594905
O 1.8421511817500005 1.7655e-07 0.6522024459500001
O 1.8421431917500004 3.12295243655 0.65221654095
O 14.04647881175 4.36655e-06 0.6414847559500001
O 14.04647082175 3.12295662655 0.64149885095
O 2.70034611825 1.56147336845 5.2876354365500005
O 2.70033812825 4.68442562845 5.2876495315500005
O 14.904673748249996 1.56147755845 5.276917746550001
O 14.904665758249998 4.68442981845 5.276931841550001
O 7.944311001749998 1.56147840155 0.6468506484500001
O 7.94430301175 4.68443066155 0.64686474345
O 20.14863863175 1.56148259155 0.6361329584500001
O 20.14863064175 4.68443485155 0.63614705345
O -1.11001593684 1.56147266952 4.417240108980001
O -1.11002392684 4.68442492952 4.41725420398
O 11.094311693160002 1.56147685952 4.40652241898
O 11.09430370316 4.68442911952 4.40653651398
O 11.75467305684 1.56147910048 1.51724597602
O 11.75466506684 4.68443136048 1.5172600710200002
O 23.95900068684 1.56148329048 1.5065282860200002
O 23.95899269684 4.68443555048 1.50654238102
O 4.992151873159999 -1.36548e-06 4.41187421648
O 4.992143883159999 3.12295089452 4.41188831148
O 17.19647950316 2.82452e-06 4.40115652648
O 17.196471513159995 3.12295508452 4.40117062148
O 5.65251323684 8.7548e-07 1.52259777352
O 5.65250524684 3.12295313548 1.52261186852
O 17.856840866839995 5.06548e-06 1.51188008352
O 17.856832876839995 3.12295732548 1.5118941785200002
