80   
   
Al 10.758375649915001 2.845415e-06 1.2000110679599998
Ga 10.758366804915 3.0965778254150003 1.20002950296
Ga 22.938480084915003 6.830415e-06 1.1954735579599998
Ga 22.938471239915003 3.0965818104150005 1.19549199296
Al -0.106755514915 -2.650415e-06 4.66928393204
In -0.106764359915 3.096572329585 4.66930236704
Al 12.073348920085 1.334585e-06 4.66474642204
Al 12.073340075085 3.096576314585 4.66476485704
Al 4.668319009915 1.5482883429150005 1.20228904046
Al 4.668310164915 4.6448633229150005 1.2023074754599998
Al 16.848423444915003 1.5482923279150005 1.19775153046
Al 16.848414599915003 4.644867307915 1.1977699654599998
Ga 5.983292280084999 1.548286832085 4.66702439454
In 5.983283435084999 4.644861812085001 4.66704282954
Ga 18.163396715085 1.548290817085 4.66248688454
Al 18.163387870085 4.644865797085001 4.66250531954
Al 9.194923177535 1.548288241445 4.02564227345
Ga 9.194914332535 4.644863221445 4.02566070845
In 21.375027612535 1.548292226445 4.02110476345
Ga 21.375018767535 4.644867206445 4.02112319845
Ga 1.4566881124650002 1.548286933555 1.84367116155
Al 1.4566792674650002 4.644861913555 1.84368959655
In 13.636792547465 1.548290918555 1.83913365155
In 13.636783702465 4.644865898555 1.83915208655
In 3.1048753825350004 -1.241055e-06 4.02790181095
Al 3.1048665375350004 3.096573738945 4.02792024595
In 15.284979817535001 2.743945e-06 4.02336430095
In 15.284970972535001 3.096577723945 4.02338273595
Al 7.546744752465002 1.436055e-06 1.84139318905
In 7.546735907465002 3.0965764160550004 1.84141162405
Al 19.726849187465003 5.421055e-06 1.83685567905
Al 19.726840342465003 3.096580401055 1.83687411405
O 9.404998728645 1.639365e-06 2.5631122861
O 9.404989883645 3.0965766193650004 2.5631307211
O 21.585103163644998 5.624365e-06 2.5585747761
O 21.585094318644998 3.0965806043650006 2.5585932111
O 1.246621406355 -1.444365e-06 3.3061827139
O 1.246612561355 3.0965735356350006 3.3062011489
O 13.426725841355 2.540635e-06 3.3016452039
O 13.426716996355 3.0965775206350004 3.3016636389
O 3.3149420886450005 1.548287136865 2.5653902586
O 3.3149332436450005 4.644862116865 2.5654086936
O 15.495046523644994 1.548291121865 2.5608527486
O 15.495037678644994 4.644866101865 2.5608711836
O 7.336669201355 1.5482880381350002 3.3039231764
O 7.336660356355 4.644863018135001 3.3039416113999995
O 19.516773636355 1.548292023135 3.2993856664
O 19.516764791355 4.644867003135 3.2994041013999995
O 8.810036176225 -4.5625e-08 5.22392211305
O 8.810027331225 3.096574934375 5.22394054805
O 20.990140611224998 3.939375e-06 5.21938460305
O 20.990131766224998 3.096578919375 5.21940303805
O 1.8415839587750005 2.40625e-07 0.64537288695
O 1.8415751137750005 3.096575220625 0.6453913219499999
O 14.021688393775 4.225625e-06 0.6408353769499999
O 14.021679548775 3.0965792056250003 0.64085381195
O 2.719979536225 1.5482854518750002 5.22620008555
O 2.719970691225 4.644860431875 5.22621852055
O 14.900083971224996 1.5482894368750002 5.22166257555
O 14.900075126224996 4.644864416875 5.22168101055
O 7.931631753775002 1.548289723125 0.64311334945
O 7.931622908775003 4.644864703125001 0.64313178445
O 20.111736188775 1.548293708125 0.63857583945
O 20.111727343775 4.644868688125 0.6385942744499999
O -1.08694783966 1.54828468997 4.36424862239
O -1.0869566846599998 4.644859669970001 4.36426705739
O 11.09315659534 1.54828867497 4.35971111239
O 11.09314775034 4.64486365497 4.35972954739
O 11.73855912966 1.54829048503 1.50506481261
O 11.73855028466 4.6448654650300005 1.50508324761
O 23.91866356466 1.54829447003 1.50052730261
O 23.91865471966 4.644869450030001 1.50054573761
O 5.003108800340001 -8.0753e-07 4.36197064989
O 5.003099955340001 3.0965741724700004 4.36198908489
O 17.18321323534 3.17747e-06 4.35743313989
O 17.18320439034 3.09657815747 4.35745157489
O 5.64851133466 1.00253e-06 1.50732435011
O 5.64850248966 3.09657598253 1.50734278511
O 17.82861576966 4.98753e-06 1.50278684011
O 17.82860692466 3.09657996753 1.50280527511
