80   
   
Al -0.05079268 -0.03676126 5.9864101225
Al -0.15237804 -0.11028378 17.9592303675
Ga 4.650951590000001 2.81174326 6.0425246125
Al 4.54936623 2.73822074 18.0153448575
Ga 3.1223489800000004 0.030207175 6.0135282075
Ga 3.0207636200000003 -0.043315345 17.9863484525
Ga 1.4778099300000005 2.7447748250000004 6.0154065275
Al 1.3762245700000002 2.6712523050000003 17.9882267725
In 0.0 0.0 0.0
Al -0.10158536 -0.07352252 11.972820245
Ga 4.701744270000001 2.84850452 0.05611449
Al 4.600158910000001 2.774982 12.028934735
In 3.17314166 0.066968435 0.027118085
Ga 3.0715563 -0.006554085 11.99993833
Al 1.5286026100000003 2.7815360850000004 0.028996405
Ga 1.4270172500000002 2.7080135650000003 12.001816649999999
Al -0.064037955452 1.8134707448755 3.0034956070925
Ga -0.165623315452 1.7399482248755 14.9763158520925
Ga -1.708577005452 4.528038394875501 3.0053739270925
Al -1.810162365452 4.454515874875501 14.978194172092499
In 3.109103704548001 1.8804391798755 3.0306136920925
Al 3.0075183445480005 1.8069166598755 15.003433937092499
Ga 1.4645646545480004 4.5950068298755005 3.0324920120925
In 1.3629792945480004 4.5214843098755 15.005312257092498
In 1.4910552054520003 0.8945428201245 8.998321042907497
Al 1.3894698454520005 0.8210203001245001 20.971141287907493
Al -0.1534838445479998 3.609110470124501 9.000199362907502
Ga -0.2550692045479999 3.5355879501245004 20.973019607907496
Al 4.664196865452 0.9615112551245 9.0254391279075
Ga 4.562611505452001 0.8879887351245 20.998259372907494
Al 3.0196578154520006 3.6760789051245006 9.027317447907501
Al 2.918072455452001 3.6025563851245006 21.000137692907494
O -0.080687795956 1.8014204038475 4.965840845248
O -0.1822731559559999 1.7278978838475 16.938661090247997
O -1.725226845956 4.515988053847501 4.967719165248
O -1.826812205956 4.442465533847501 16.940539410247997
O 3.092453864044 1.8683888388475005 4.992958930247999
O 2.9908685040440006 1.7948663188475005 16.965779175247995
O 1.4479148140440004 4.5829564888475005 4.994837250248
O 1.3463294540440005 4.5094339688475005 16.967657495247998
O 1.5077050459560002 0.9065931611525 7.035975804751999
O 1.4061196859560003 0.8330706411525001 19.008796049752
O -0.1368340040439998 3.621160811152501 7.037854124751999
O -0.2384193640439999 3.5476382911525004 19.010674369752
O 4.680846705956 0.9735615961525 7.063093889752
O 4.5792613459560005 0.9000390761525 19.035914134752
O 3.036307655956001 3.6881292461525006 7.064972209751999
O 2.934722295956001 3.614606726152501 19.037792454752
O 1.4744053649480002 0.8824924790965001 10.960666281063
O 1.3728200049480002 0.8089699590965 22.933486526063003
O -0.1701336850519999 3.5970601290965 10.962544601063
O -0.2717190450519998 3.5235376090965005 22.935364846063003
O 4.647547024948 0.9494609140965 10.987784366063002
O 4.545961664948001 0.8759383940965 22.960604611063
O 3.0030079749480008 3.6640285640965 10.989662686063
O 2.9014226149480007 3.5905060440965006 22.962482931063
O -0.047388114948 1.8255210859035 1.041150368937
O -0.148973474948 1.7519985659035 13.013970613937
O -1.691927164948 4.540088735903501 1.043028688937
O -1.7935125249480002 4.466566215903501 13.015848933937
O 3.1257535450520004 1.8924895209035 1.068268453937
O 3.0241681850520004 1.8189670009035 13.041088698937
O 1.4812144950520003 4.6070571709035 1.070146773937
O 1.3796291350520002 4.5335346509035 13.042967018937
O -0.02539634 -0.01838063 2.99320506125
O -0.1269817 -0.09190315 14.96602530625
O 4.67634793 2.8301238900000003 3.04931955125
O 4.574762570000001 2.7566013700000003 15.022139796249997
O 3.1477453200000003 0.048587805 3.02032314625
O 3.04615996 -0.024934715 14.99314339125
O 1.5032062700000004 2.7631554550000006 3.02220146625
O 1.4016209100000003 2.689632935000001 14.995021711249997
O -0.07618902 -0.05514189 8.97961518375
O -0.17777438 -0.12866441 20.95243542875
O 4.625555250000001 2.7933626300000003 9.03572967375
O 4.523969890000001 2.7198401100000003 21.00854991875
O 3.09695264 0.011826545 9.00673326875
O 2.9953672800000004 -0.061695975 20.97955351375
O 1.4524135900000004 2.726394195000001 9.00861158875
O 1.3508282300000003 2.6528716750000005 20.98143183375
