80   
   
Al 1.6241453870799998 7.31960927041 6.41410722862
Al 6.62939146208 7.293598110409999 6.39469303362
Ga 3.4572140636599995 1.26599268017 1.80228633426
Al 8.46246013866 1.23998152017 1.78287213926
Al 0.96355736378 3.0163983492499997 1.8096788188
Al 5.96880343878 2.99038718925 1.7902646238000002
Al 4.11780208696 5.56920360133 6.40671474408
Ga 9.123048161960002 5.54319244133 6.38730054908
Al 0.925146226405 5.65479577768 -0.011014820745
Ga 5.930392301405 5.62878461768 -0.030429015745
Ga 4.142231263594999 2.9261246373200005 4.592707155745
Ga 9.147477338595 2.900113477320001 4.573292960745
Al 1.6314408690549995 1.35654795796 4.604522613565
Ga 6.636686944055 1.3305367979599998 4.585108418565
Ga 3.471423830945 7.23625452704 9.202299741435
Ga 8.476669905944998 7.21024336704 9.182885546435
Ga 0.87766469769 0.26553002925 9.21229955082
Ga 5.882910772689999 0.23951886925 9.19288535582
Al 4.22512902789 8.32724869161 4.57607254414
Ga 9.23037510289 8.301237531609999 4.55665834914
Ga 1.70297535399 4.555818434010001 4.59082137284
Ga 6.708221428989999 4.52980727401 4.57140717784
Ga 3.39981837159 4.03696028685 9.19755072212
Al 8.40506444659 4.010949126849999 9.17813652712
Al 3.4634908818150003 1.34188905927 7.245079620805
Al 8.468736956815 1.31587789927 7.225665425805
Al 1.6242562667249998 7.245851663909998 2.631837345675
Ga 6.629502341724999 7.219840503909999 2.612423150675
Al 4.118623171565 5.63306184347 2.624261525455
Al 9.123869246565 5.607050683470001 2.604847330455
Ga 0.969123976975 2.9546788797100003 7.252655441025
Al 5.974370051974999 2.92866771971 7.233241246025
O 4.2107345195949994 5.74311010813 8.214281017084998
O 9.215980594595 5.71709894813 8.194866822085
O 0.884535917465 2.84714961389 3.618363513635
O 5.889781992465 2.82113845389 3.5989493186350003
O 3.3799681297449995 1.44078356641 3.610512689895
O 8.385214204745001 1.4147724064099998 3.591098494895
O 1.715302307315 7.14947615561 8.222131840825
O 6.720548382314999 7.12346499561 8.202717645825
O 2.650475134755 0.07122687789 5.792311203885
O 7.655721209754998 0.04521571789 5.772897008885
O 2.4260580554249995 8.51275911117 1.169464676275
O 7.431304130424999 8.486747951169999 1.150050481275
O 4.907286168504999 4.3540760908900005 1.165280566135
O 9.912532243505002 4.328064930890001 1.145866371135
O 0.169247021675 4.229909898169999 5.796495314025
O 5.174493096675 4.20389873817 5.777081119025
O 0.116081362405 7.114066739649999 1.106473356535
O 5.121327437404999 7.088055579649999 1.087059161535
O 4.959884032414999 1.4697291362899998 5.707700443305
O 9.965130107415002 1.4437179762899996 5.688286248305
O 2.464096717655 2.80728725945 5.715642934885
O 7.469342792654999 2.78127609945 5.696228739885
O 2.6118686771649995 5.776508616490001 1.098530864955
O 7.617114752164999 5.750497456490001 1.079116669955
O 4.92480384623 7.16412501404 5.85719452442
O 9.930049921229998 7.138113854039999 5.83778032942
O 0.15236811373 1.4200748522800002 1.2706336961
O 5.157614188729999 1.39406369228 1.2512195011
O 2.66253707893 2.8692376640800004 1.258978657
O 7.6677831539299985 2.8432265040800004 1.239564462
O 2.41463488103 5.71496220224 5.86884956352
O 7.419880956029998 5.68895104224 5.84943536852
O 1.845171684635 1.4630682356600002 7.980006131325
O 6.850417759635 1.43705707566 7.960591936324999
O 3.248182443085 7.12654985458 3.354481378315
O 8.253428518084998 7.100538694579999 3.335067183315
O 0.738457355985 5.7633969481800005 3.366021832615
O 5.743703430984999 5.737385788180001 3.346607637615
O 4.354896771735 2.82622114206 7.968465677024998
O 9.360142846734998 2.80020998206 7.949051482025
O 4.21636859551 -0.00245047622 8.2863752925
O 9.22161467051 -0.02846163622 8.266961097499998
O 0.87939866249 8.592876547220001 3.6754210585
O 5.88464473749 8.56686538722 3.6560068635
O 3.3599165706100003 4.2965776783 3.67142028404
O 8.365162645609999 4.2705665183 3.65200608904
O 1.73585068739 4.2938483927 8.29037606696
O 6.74109676239 4.267837232700001 8.27096187196
