80   
   
Al 1.64152760569 7.425740737470002 6.49400506122
Ga 6.726141510690001 7.40539487247 6.47388174622
In 3.51062368619 1.28852609871 1.82486784252
Al 8.59523759119 1.26818023371 1.8047445275200005
Ga 0.97531752647 3.06007100973 1.83167793228
Ga 6.059931431469999 3.03972514473 1.81155461728
In 4.1768337654100005 5.6541958264500005 6.48719497146
Al 9.26144767041 5.633849961450001 6.46707165646
Al 0.932950451615 5.733896515245001 -0.014193813845
Ga 6.017564356615001 5.7135506502450015 -0.034317128845
Al 4.2047101033850005 2.9737818647550003 4.650844483845
Al 9.289324008385002 2.9534359997550004 4.6307211688450005
Ga 1.656026191125 1.379536757415 4.663867965425
Ga 6.740640096125 1.359190892415 4.643744650425
Al 3.5184128838750004 7.344863592585 9.318524414575
Ga 8.603026788875 7.324517727584999 9.298401099575
Al 0.8919965992200001 0.2748770405100001 9.33253234527
Al 5.97661050422 0.25453117551 9.31240903027
Ga 4.28236891874 8.449489865550001 4.63116855131
Al 9.36698282374 8.429144000550004 4.61104523631
In 1.7248127146400003 4.6230109636500005 4.64831283161
In 6.809426619640001 4.60266509865 4.62818951661
In 3.4495528033200005 4.10135594241 9.31538806497
Al 8.53416670832 4.08101007741 9.29526474997
Ga 3.5173464303950004 1.3682104046850003 7.338787046405
Al 8.601960335395 1.3478645396850002 7.318663731405
Ga 1.641424995085 7.349066386095002 2.662319365135
Al 6.726038900085 7.3287205210950015 2.642196050135
Al 4.177285673045 5.717036087235001 2.655251725455
Al 9.261899578045 5.696690222235 2.635128410455
Al 0.981485752435 3.0002407035450003 7.345854686085
Al 6.066099657435 2.9798948385450004 7.325731371085
O 4.271173939515 5.831520718065001 8.318296312864998
O 9.355787844515 5.811174853065 8.298172997865
O 0.8953945322050001 2.8893011303550007 3.664107341195
O 5.980008437205 2.8689552653550003 3.643984026195001
O 3.4320869875250004 1.4665427497350003 3.656653376635001
O 8.516700892525002 1.4461968847350004 3.636530061635
O 1.7344814841950005 7.254279098685 8.325750277425001
O 6.819095389195 7.233933233685 8.305626962425
O 2.692867905715 0.078313509345 5.867761923385
O 7.777481810715 0.057967644345 5.847638608385
O 2.454281507445 8.633679138915001 1.180090107795
O 7.538895412445002 8.613333273915 1.159966792795
O 4.979883597965 4.420628515095001 1.177787141635
O 10.064497502965002 4.400282650095001 1.157663826635
O 0.167265815195 4.2913641331650005 5.8700648895450005
O 5.251879720195 4.271018268165 5.849941574545
O 0.109381071025 7.212879686415 1.117220785695
O 5.193994976025 7.192533821415 1.097097470695
O 5.037179885815001 1.498845410325 5.781099378125
O 10.121793790815 1.4784995453249998 5.760976063125001
O 2.5002101713750005 2.8518464848650003 5.788682117645
O 7.584824076375002 2.8315006198650003 5.768558802645
O 2.646350785465 5.859878611875001 1.109638046175
O 7.730964690465 5.839532746875 1.089514731175
O 4.994648332070001 7.27181125818 5.92958246235
O 10.079262237070001 7.25146539318 5.909459147350001
O 0.15316309445 1.4404823855400002 1.28649291961
O 5.23777699945 1.4201365205400005 1.26636960461
O 2.70136180325 2.9126522072400003 1.27369479421
O 7.785975708250001 2.8923063422400004 1.25357147921
O 2.44644962327 5.799641436480001 5.942380587750001
O 7.53106352827 5.779295571480001 5.9222572727500005
O 1.873287574325 1.4894791229550004 8.083411336244998
O 6.957901479325 1.4691332579550005 8.063288021245
O 3.2912948573150005 7.230439739085 3.394322265475
O 8.375908762315001 7.210093874085 3.3741989504750003
O 0.7434427224150001 5.845466549985001 3.406959422175
O 5.828056627415 5.825120684985 3.386836107175
O 4.421139709225001 2.8744523120550007 8.070774179544998
O 9.505753614225 2.8541064470550004 8.050650864545
O 4.28387254997 0.00676029312 8.394328350790001
O 9.36848645497 -0.01358557188 8.37420503579
O 0.8832108210300001 8.714295662879998 3.71891568721
O 5.96782472603 8.69394979788 3.69879237221
O 3.4082583933100006 4.3617304269 3.71687027097
O 8.49287229831 4.3413845619 3.6967469559700006
O 1.7588249776900002 4.3593255291 8.396373767030001
O 6.843438882690001 4.338979664100001 8.37625045203
