80   
   
Al 1.5910910158200002 7.260187934920002 6.37383261639
Al 6.560731480820001 7.24437901492 6.35993585139
Al 3.42811124288 1.26179474614 1.79396522591
Al 8.397751707880001 1.24598582614 1.78006846091
Al 0.94873387816 2.992803531 1.79914488025
Al 5.918374343160001 2.976994611 1.7852481152500002
Al 4.07046838054 5.529179150060001 6.36865296205
Al 9.04010884554 5.5133702300600005 6.35475619705
Al 0.907295380855 5.610054588260001 -0.008249021575
Al 5.876935845855001 5.594245668260001 -0.022145786575
Al 4.101939249145 2.9085909167400006 4.566385151575
Al 9.071579714145 2.8927819967400006 4.552488386575
Al 1.612161156885 1.34693500162 4.574944652795
Al 6.581801621885001 1.33112608162 4.561047887795
Al 3.4223720231150003 7.18018049338 9.144769427205
Al 8.392012488115 7.16437157338 9.130872662205
Al 0.8609811962700001 0.26171220435 9.14981903313
Al 5.83062166127 0.24590328435 9.13592226813
Al 4.17350138663 8.265386350670001 4.55157189097
Al 9.14314185163 8.249577430670001 4.53767512597
Al 1.6768254025300002 4.519994261470001 4.56237294867
Ga 6.646465867530001 4.50418534147 4.54847618367
Al 3.3576571803700004 4.00710429355 9.13901797543
Al 8.32729764537 3.99129537355 9.12512121043
Al 3.428344025105001 1.3350812224400002 7.199267858065
In 8.397984490105001 1.3192723024400002 7.185371093065
In 1.595411972595 7.18842605682 2.617614015235
In 6.565052437595001 7.1726171368200005 2.603717250235
Al 4.075220455555 5.593900782840001 2.612294263615
Al 9.044860920555 5.578091862840001 2.598397498615
Al 0.948535542145 2.9296064964200004 7.204587609685
Al 5.918176007145 2.9137975764200004 7.190690844685
O 4.160449682045 5.70117490506 8.163910873644998
O 9.130090147045 5.68536598506 8.150014108644998
O 0.8686696082550002 2.82412801208 3.595225525055
O 5.838310073255001 2.80831909208 3.581328760055
O 3.3491247685750003 1.4343280044200002 3.5896956275150003
O 8.318765233575002 1.4185190844200002 3.575798862515
O 1.679994521725 7.09097491272 8.169440771185
O 6.649634986724999 7.075165992720001 8.155544006185
O 2.6252165360850004 0.07379991558 5.755257924205
O 7.594857001084998 0.05799099558 5.741361159205
O 2.390545119815 8.44703084684 1.166565316895
O 7.360185584815001 8.43122192684 1.152668551895
O 4.862377915335 4.327560621580001 1.163837364955
O 9.832018380335 4.31175170158 1.149940599955
O 0.153383740565 4.193270140840001 5.757985876145
O 5.123024205564999 4.177461220840001 5.744089111145
O 0.099889155555 7.0552792036000005 1.101101202315
O 5.069529620555 7.0394702836 1.087204437315
O 4.915467723545 1.4654160389800002 5.674136791585
O 9.885108188545 1.4496071189800002 5.660240026585
O 2.4347970041050004 2.7869742912000004 5.679736737765
O 7.404437469105002 2.7711653712000004 5.665839972765
O 2.580559874995 5.733720951380001 1.095501256135
O 7.550200339994999 5.717912031380001 1.081604491135
O 4.86912999003 7.11277080743 5.82426774972
O 9.83877045503 7.09696188743 5.81037098472
O 0.14708703977 1.40821241481 1.2624638944800002
O 5.116727504770001 1.39240349481 1.24856712948
O 2.6364879035700004 2.8504452579100006 1.25402697838
O 7.60612836857 2.8346363379100006 1.24013021338
O 2.37972912623 5.670537964330001 5.83270466582
O 7.34936959123 5.654729044330001 5.81880790082
O 1.820529383465 1.45176529432 7.927421238934999
O 6.790169848465 1.43595637432 7.913524473934999
O 3.2072237851350005 7.07308024336 3.336989950465
O 8.176864250134999 7.05727132336 3.323093185465
O 0.718092370235 5.716149594560002 3.345339305765
O 5.687732835235001 5.700340674560001 3.331442540765
O 4.309660798365001 2.8086959431200005 7.919071883634999
O 9.279301263365 2.7928870231200005 7.9051751186349986
O 4.17741506863 0.00293695331 8.23379370338
O 9.14705553363 -0.01287196669 8.21989693838
O 0.8520584013700001 8.522484543690004 3.65360478662
O 5.82169886637 8.506675623690002 3.63970802162
O 3.3234600786500006 4.26653080755 3.65101693196
O 8.293100543650002 4.25072188755 3.63712016696
O 1.7060133913500002 4.25889068945 8.236381558039998
O 6.67565385635 4.243081769450001 8.222484793039998
