80   
   
Ga 7.220873289999998 2.4032896050000003 7.1991173675
Ga 2.40636965 7.20204436 7.216858527499999
Al 7.203615545 7.2182894599999985 2.4002602025
Ga 7.213225064999999 7.210124325 7.2069583275
Ga 2.39676013 7.210209495 2.4101604025
In 7.211263769999999 2.4114547400000004 2.3924192425
In 2.4140178750000003 2.3952096400000005 7.209017567499998
Ga 2.404408355 2.4033747750000005 2.4023194425
Ga 7.212764496799998 4.483924771540001 4.79915559972
Ga 2.3886513368 9.29084466154 0.01019863472
Ga 7.2021148182 5.14581942846 -0.00647615472
In 4.804339150140001 7.21072213918 4.4817038925
Al 0.01474148014 2.38764231918 9.290461257499999
Ga -0.00120937014 7.20153171582 5.1453150375
In 4.486755301780001 4.802117544880001 7.208661161099998
In 9.29164942178 0.01152792488 2.3842218761
Ga 5.14813586322 -0.00361829988 7.1994737739
Ga 2.4048689232000005 5.12957432846 4.81012217028
In 7.209763043199999 0.3389847084600001 -0.01431711472
In 2.3962995618000003 4.484009941540001 0.00235767472
Ga 4.81329426986 2.40277696082 5.1275738775
Ga -0.01081889014 7.20969685082 0.3386169125
Ga 0.00513196014 2.3958074541800003 4.4837631325
Al 5.130878118220001 4.81138155512 2.4006166089
Ga 0.34128044822 -0.01169826488 7.209373973899998
Ga 4.4847940067800005 0.00344795988 2.3941220761
Ga 2.4125171482 0.32273960846 4.80228121028
In 4.80368474986 2.41094209582 0.3208757525
Ga 0.32402270322 4.80330159012 2.4105168089
Ga 7.2051162718 9.29075949154 4.80699655972
Ga 4.81394867014 7.20255700418 9.2884020175
In 9.293610716780002 4.81019750988 7.1987609611
O 5.96712749289 3.75825125052 6.30024332272
O 3.65580184821 8.55813749656 8.12015487372
O 8.45374816259 5.86639790524 1.49181575228
O 5.96740604631 5.850961097680001 8.110980476279998
O 6.304625150120001 5.96469083131 3.75557166175
O 8.125283454160002 3.65228309755 8.55478365075
O 1.4979824088400002 8.45260492185 5.865269543449999
O 8.116192536880002 5.964168899290001 5.847569569049999
O 3.76084226813 6.302760917870001 5.962851058119999
O 8.56020938093 8.122130002389998 3.64868395908
O 5.86927640447 1.4952031924100002 8.45017663592
O 5.853755496470001 8.113653637329998 5.961482771879999
O 3.65050592711 5.85524784948 3.3090344472799997
O 5.96183157179 1.0553616034400002 1.4891228962799998
O 1.1638852574099998 3.74710119476 8.117462017719998
O 3.65022737369 3.76253800232 1.49829729372
O 3.31300826988 3.64880826869 5.853706108249999
O 1.49234996584 5.9612160024500005 1.05449411925
O 8.119651011160002 1.16089417815 3.74400822655
O 1.50144088312 3.64933020071 3.76170820095
O 5.85679115187 3.31073818213 3.64642671188
O 1.0574240390700005 1.49136909761 5.96059381092
O 3.74835701553 8.118295907590001 1.15910113408
O 3.76387792353 1.49984546267 3.64779499812
O 1.14301433289 8.56517114052 1.51128635772
O 8.46069596821 3.767547876560001 3.29571558872
O 3.66415049259 1.04331808524 6.30057311728
O 1.15858933631 1.04421154768 3.3063415912799994
O 1.51502748012 1.14161101131 8.56432902675
O 3.30117029416 8.45920298755 3.76582668575
O 6.302876528840001 3.66201530185 1.04083025845
O 3.30737582688 1.15741934929 1.04293068405
O 8.56573638813 1.5121712978700002 1.13841177312
O 3.77061171093 3.29905018239 8.457441324079998
O 1.04516324447 6.3021230824100005 3.66121967092
O 1.0449387864700002 3.3069040873299995 1.15684388688
O 8.47461908711 1.04832795948 8.097991412279999
O 1.15693745179 5.84595122344 6.31356218128
O 5.9534829274100005 8.570181014760001 3.3087046527199995
O 8.459044083689998 8.569287552320002 6.30293617872
O 8.10260593988 8.471888088690001 1.04494874325
O 6.31646312584 1.1542961124500002 5.84345108425
O 3.31475689116 5.951483798150001 8.568447511549998
O 6.310257593120001 8.45607975071 8.566347085949998
O 1.05189703187 8.10132780213 8.47086599688
O 5.847021709070001 6.31444891761 1.15183644592
O 8.57247017553 3.31137601759 5.94805809908
O 8.572694633530002 6.306595012670001 8.452433883119998
