80   
   
In 1.69493889689 7.67940732863 6.68270161183
In 6.96475810189 7.66579777863 6.65827830183
Al 3.63787169543 1.33810066499 1.87664140587
Al 8.907690900429998 1.32449111499 1.85221809587
In 1.00761754047 3.16401783783 1.88335122727
Al 6.277436745469999 3.15040828783 1.85892791727
Ga 4.32519305185 5.853490155790001 6.67599179043
In 9.59501225685 5.839880605790001 6.65156848043
Al 0.958462412355 5.923187443910001 -0.02229358689
In 6.228281617355 5.909577893910001 -0.04671689689
In 4.356743952645 3.0830335410900003 4.78663075189
Ga 9.626563157645 3.0694239910900003 4.76220744189
Al 1.7175937444650002 1.43282504281 4.80385397809
Al 6.987412949465 1.41921549281 4.77943066809
Al 3.642293400535 7.60204317219 9.59247773691
Al 8.912112605535 7.58843362219 9.56805442691
In 0.9306571287600002 0.29649738597 9.61744233537
In 6.20047633376 0.28288783597 9.59301902537
Ga 4.42914065468 8.73831353457 4.75962539053
Al 9.69895985968 8.72470398457 4.73520208053
Al 1.7840904733800005 4.78269526477 4.78382123753
In 7.05390967838 4.76908571477 4.75939792753
In 3.5757073100600003 4.25211565577 9.59324648837
Ga 8.845526515059998 4.23850610577 9.56882317837
Al 3.648608272175 1.4270874147 7.5593735659
In 8.918427477175001 1.4134778647 7.5349502559
In 1.6922448605450002 7.59557708032 2.7337284708
In 6.962064065545 7.58196753032 2.7093051608
Ga 4.322867763824999 5.9137480182 2.7265828606
Al 9.592686968825 5.9001384682 2.7021595506
In 1.017985368895 3.10891647682 7.5665191761
Al 6.287804573895 3.09530692682 7.5420958661
O 4.423998346615001 6.03898378892 8.56290278996
O 9.693817551615 6.0253742389200005 8.538479479959998
O 0.926327111465 2.9897539188600004 3.77218209134
O 6.196146316465001 2.9761443688600004 3.74775878134
O 3.5575031372250003 1.52405702282 3.76438279794
O 8.827322342225 1.51044747282 3.73995948794
O 1.792822320855 7.5046806849599985 8.57070208336
O 7.062641525855 7.4910711349599985 8.546278773360001
O 2.794966714175 0.0919236562 6.045457203
O 8.064785919174998 0.0783141062 6.021033893
O 2.531767292065 8.921688314139999 1.2039345559
O 7.801586497065002 8.908078764139999 1.1795112459
O 5.155568351425001 4.574229203700001 1.2048510385
O 10.425387556425001 4.560619653700001 1.1804277285
O 0.171165654815 4.43938276664 6.0445407204
O 5.440984859814999 4.42577321664 6.0201174104
O 0.103513341245 7.4508163944199985 1.1425801573
O 5.373332546244999 7.437206844419999 1.1181568473
O 5.222505772515 1.56233722024 5.9526996888
O 10.492324977515 1.54872767024 5.9282763788
O 2.591145372595 2.9559900609200005 5.9607168766
O 7.860964577595001 2.9423805109200005 5.9362935666
O 2.734873741165 6.05716355374 1.1345629695
O 8.004692946165 6.04355400374 1.1101396595
O 5.17001465785 7.52464672834 6.09873033758
O 10.43983386285 7.51103717834 6.07430702758
O 0.15752360243 1.48948089214 1.32403732322
O 5.42734280743 1.47587134214 1.29961401322
O 2.7963511558300005 3.01361229354 1.30719541222
O 8.06617036083 3.00000274354 1.28277210222
O 2.53118710445 6.00051532694 6.11557224858
O 7.80100630945 5.9869057769400005 6.09114893858
O 1.945016239385 1.5508316300300002 8.32786020939
O 7.214835444384998 1.5372220800300005 8.30343689939
O 3.402896456575 7.47635912733 3.48709696621
O 8.672715661575001 7.46274957733 3.46267365621
O 0.764299370875 6.04228279513 3.50366650921
O 6.034118575875 6.02867324513 3.47924319921
O 4.583613325085 2.98490796223 8.31129066639
O 9.853432530085 2.97129841223 8.28686735639
O 4.44580460415 0.02341043012 8.64834997104
O 9.71562380915 0.00980088012 8.62392666104
O 0.90514638485 9.005728338880001 3.82158283396
O 6.174965589849999 8.992118788880001 3.79715952396
O 3.5285786958900003 4.514181117720001 3.82293510536
O 8.79839790089 4.500571567720001 3.79851179536
O 1.8223722931100004 4.51495765128 8.64699769964
O 7.092191498110001 4.50134810128 8.62257438964
