80   
   
In -0.0384551225 -0.0556317775 6.0709276725
In -0.1153653675 -0.1668953325 18.2127830175
In 4.7896542625 2.9164685775000003 6.1265558325
Al 4.7127440175 2.8052050225 18.2684111775
In 3.2334538475000003 0.0367590025 6.0918543375
Al 3.1565436025 -0.0745045525 18.2337096825
Al 1.5177452925 2.8240777975 6.1056291675
Al 1.4408350475000002 2.7128142425 18.2474845125
In 0.0 0.0 0.0
In -0.076910245 -0.111263555 12.141855345
In 4.828109385 2.972100355 0.05562816
Al 4.751199140000001 2.8608368000000004 12.197483505
Al 3.27190897 0.09239078 0.020926665
Al 3.194998725 -0.018872775 12.16278201
Al 1.5562004150000002 2.879709575 0.034701495
In 1.47929017 2.7684460200000003 12.176556840000002
In -0.0723916243119998 1.861004666971 3.0516209953725
Al -0.1493018693119998 1.7497411119709998 15.193476340372499
In -1.7881001793120002 4.6483234619710005 3.0653958253725
Al -1.8650104243120005 4.537059906971001 15.2072511703725
Al 3.199517345688 1.953395446971 3.0725476603725
In 3.1226071006880005 1.842131891971 15.2144030053725
In 1.483808790688 4.740714241971 3.0863224903725
Ga 1.406898545688 4.629450686971 15.228177835372499
In 1.551681794312 0.907441353029 9.124935844627501
Al 1.474771549312 0.796177798029 21.2667911896275
Al -0.1640267606879995 3.694760148029 9.1387106746275
Al -0.2409370056879995 3.583496593029 21.280566019627493
Ga 4.823590764312 0.999832133029 9.1458625096275
Al 4.746680519312 0.888568578029 21.287717854627495
Al 3.1078822093120007 3.787150928029 9.159637339627501
In 3.030971964312001 3.675887373029 21.3014926846275
O -0.0849972134674998 1.8427685703065 5.041671086418
O -0.1619074584674998 1.7315050153065 17.183526431417995
O -1.8007057684675003 4.630087365306501 5.055445916418
O -1.8776160134675 4.5188238103065 17.197301261417998
O 3.1869117565325005 1.9351593503065 5.062597751418
O 3.1100015115325004 1.8238957953065 17.204453096418
O 1.4712032015324998 4.722478145306501 5.076372581418
O 1.3942929565325 4.6112145903065 17.218227926417995
O 1.5642873834675 0.9256774496935 7.134885753581999
O 1.4873771384675 0.8144138946935 19.276741098582
O -0.1514211715324995 3.7129962446935 7.148660583581999
O -0.2283314165324995 3.6017326896935 19.290515928582
O 4.8361963534675 1.0180682296935 7.155812418581999
O 4.7592861084675 0.9068046746935 19.297667763582
O 3.120487798467501 3.8053870246935 7.169587248582
O 3.0435775534675007 3.6941234696935 19.311442593582
O 1.5390762051565 0.8892052563645 11.114985935673
O 1.4621659601565 0.7779417013645 23.256841280672997
O -0.1766323498434995 3.6765240513645 11.128760765673
O -0.2535425948434995 3.5652604963645 23.270616110673
O 4.8109851751565005 0.9815960363645 11.135912600673
O 4.7340749301565 0.8703324813645 23.277767945673
O 3.0952766201565005 3.7689148313645 11.149687430673
O 3.0183663751565004 3.6576512763645 23.291542775672998
O -0.0597860351564998 1.8792407636355 1.061570904327
O -0.1366962801564998 1.7679772086355 13.203426249327
O -1.7754945901565002 4.666559558635501 1.075345734327
O -1.8524048351565003 4.555296003635501 13.217201079327
O 3.2121229348435003 1.9716315436355 1.082497569327
O 3.1352126898435 1.8603679886355 13.224352914327
O 1.4964143798435 4.7589503386355005 1.0962723993269998
O 1.4195041348434998 4.647686783635501 13.238127744327
O -0.01922756125 -0.02781588875 3.03546383625
O -0.09613780625 -0.13907944375 15.177319181249997
O 4.80888182375 2.94428446625 3.09109199625
O 4.7319715787500005 2.83302091125 15.23294734125
O 3.25268140875 0.06457489125 3.05639050125
O 3.1757711637500003 -0.04668866375 15.19824584625
O 1.5369728537500005 2.85189368625 3.07016533125
O 1.4600626087500002 2.74063013125 15.21202067625
O -0.05768268375 -0.08344766625 9.10639150875
O -0.13459292875 -0.19471122125 21.24824685375
O 4.77042670125 2.88865268875 9.16201966875
O 4.69351645625 2.7773891337500003 21.30387501375
O 3.21422628625 0.00894311375 9.12731817375
O 3.13731604125 -0.10232044125 21.26917351875
O 1.4985177312500002 2.79626190875 9.14109300375
O 1.42160748625 2.68499835375 21.28294834875
