80   
   
Ga -0.069674535 -0.0471706675 5.92326533
In -0.209023605 -0.1415120025 17.769795990000002
Al 4.4756009 2.8733070675 5.998542260000001
Al 4.33625183 2.7789657325 17.84507292
Al 3.046158295 0.1009347975 5.960731935
Al 2.906809225 0.0065934625 17.807262595
Al 1.35976807 2.7252016025 5.961075655
Al 1.220419 2.6308602675 17.807606315
In 0.0 0.0 0.0
Al -0.13934907 -0.094341335 11.84653066
Al 4.545275435 2.920477735 0.07527693
Al 4.405926365 2.8261364 11.92180759
Ga 3.11583283 0.148105465 0.037466605
In 2.97648376 0.05376413 11.883997265
Al 1.429442605 2.77237227 0.037810325
Al 1.290093535 2.678030935 11.884340985
Al -0.120477909246 1.7751144699474997 2.9743494081985
Al -0.2598269792460001 1.6807731349474997 14.8208800681985
Al -1.806868134246 4.3993812749475 2.9746931281985
Al -1.946217204246 4.3050399399475 14.8212237881985
Al 2.9953549207540004 1.9232199349475 3.0118160131985
Al 2.8560058507540003 1.8288785999475 14.858346673198499
Al 1.3089646957540002 4.5474867399475 3.0121597331985
Al 1.1696156257540002 4.4531454049475 14.858690393198499
Al 1.4105714442459998 0.9029164650525 8.9099915768015
Al 1.2712223742459998 0.8085751300524999 20.7565222368015
In -0.275818780754 3.5271832700525 8.9103352968015
Al -0.415167850754 3.4328419350525 20.7568659568015
Al 4.526404274246 1.0510219300525 8.947458181801501
Al 4.387055204246001 0.9566805950525 20.7939888418015
Ga 2.8400140492460006 3.6752887350525 8.947801901801501
Ga 2.7006649792460005 3.5809474000525 20.7943325618015
O -0.1433172218190001 1.7596519251409997 4.9159957833725
O -0.282666291819 1.6653105901409997 16.7625264433725
O -1.829707446819 4.3839187301410005 4.9163395033725
O -1.969056516819 4.289577395141 16.7628701633725
O 2.972515608181 1.907757390141 4.9534623883725
O 2.8331665381810005 1.813416055141 16.7999930483725
O 1.2861253831810002 4.532024195141 4.9538061083725005
O 1.1467763131810005 4.437682860141 16.8003367683725
O 1.4334107568189998 0.918379009859 6.9683452016275
O 1.2940616868189998 0.8240376748589999 18.814875861627502
O -0.252979468181 3.542645814859 6.9686889216275
O -0.392328538181 3.448304479859 18.815219581627503
O 4.549243586819001 1.066484474859 7.0058118066275
O 4.4098945168190005 0.972143139859 18.8523424666275
O 2.8628533618190004 3.690751279859 7.0061555266275
O 2.7235042918190007 3.596409944859 18.8526861866275
O 1.3877321316729998 0.8874539202459999 10.851637951975501
O 1.2483830616729998 0.7931125852459999 22.6981686119755
O -0.298658093327 3.511720725246 10.851981671975501
O -0.438007163327 3.417379390246 22.6985123319755
O 4.503564961673001 1.035559385246 10.8891045569755
O 4.364215891673001 0.941218050246 22.735635216975496
O 2.8171747366730004 3.659826190246 10.889448276975502
O 2.6778256666730003 3.565484855246 22.735978936975496
O -0.0976385966730001 1.7905770147539997 1.0327030330245
O -0.2369876666730001 1.6962356797539997 12.8792336930245
O -1.784028821673 4.414843819754 1.0330467530245
O -1.923377891673 4.320502484754 12.8795774130245
O 3.018194233327 1.938682479754 1.0701696380245
O 2.8788451633270005 1.844341144754 12.9167002980245
O 1.3318040083270002 4.562949284754 1.0705133580245
O 1.1924549383270002 4.468607949754 12.9170440180245
O -0.0348372675 -0.02358533375 2.961632665
O -0.1741863375 -0.11792666875 14.808163325
O 4.5104381675 2.89689240125 3.036909595
O 4.3710890975 2.80255106625 14.883440255
O 3.0809955625 0.12452013125 2.9990992700000003
O 2.9416464925 0.03017879625 14.84562993
O 1.3946053375 2.74878693625 2.9994429900000004
O 1.2552562675 2.65444560125 14.84597365
O -0.1045118025 -0.07075600125 8.884897995000001
O -0.2438608725 -0.16509733625 20.731428655
O 4.4407636325 2.84972173375 8.960174925
O 4.3014145625 2.75538039875 20.806705585000003
O 3.0113210275 0.07734946375 8.9223646
O 2.8719719575 -0.01699187125 20.76889526
O 1.3249308025 2.70161626875 8.92270832
O 1.1855817325 2.60727493375 20.76923898
