80   
   
In 1.58303733953 7.226003723819998 6.34856743705
Al 6.528043574530001 7.209777858819998 6.33543806705
Ga 3.41099262403 1.25542301222 1.7871468189100002
Al 8.355998859029999 1.23919714722 1.77401744891
Al 0.94407873139 2.97882706108 1.79224680393
Al 5.88908496639 2.96260119608 1.7791174339300002
Al 4.049951232170001 5.50259967496 6.34346745203
Al 8.994957467170002 5.48637380996 6.33033808203
Al 0.903362601005 5.584529008605 -0.00712130865
Al 5.848368836005001 5.568303143605 -0.02025067865
Al 4.081256183995 2.894203886395 4.54831511865
Al 9.026262418995 2.877978021395 4.53518574865
Al 1.6036618913750005 1.339873425775 4.55621398581
In 6.548668126375 1.323647560775 4.54308461581
Al 3.404843133625 7.145696629224999 9.108128164190001
Al 8.349849368625001 7.129470764224999 9.09499879419
Al 0.8554534841400001 0.25885058292 9.1116019278
Al 5.80045971914 0.24262471792 9.0984725578
Al 4.15300376838 8.226705797759998 4.5344939255200005
Al 9.09801000338 8.210479932759998 4.52136455552
Al 1.6683261016800002 4.49854105106 4.54424904612
Al 6.61333233668 4.48231518606 4.53111967612
Al 3.34013115084 3.98701532962 9.1018468072
Al 8.28513738584 3.97078946462 9.0887174372
Al 3.4104718423650007 1.327437935655 7.1697857197
Al 8.355478077365001 1.311212070655 7.1566563497
Al 1.587857644395 7.155219489185 2.60809523746
Al 6.532863879395 7.138993624185 2.59496586746
Al 4.055214247914999 5.567680083205 2.6028792366
Al 9.000220482915001 5.551454218205 2.5897498666
Al 0.943115238845 2.914977341635 7.17500172056
Al 5.8881214738450005 2.898751476635 7.16187235056
O 4.139251429805 5.6734947222150005 8.13123630758
O 9.084257664804996 5.6572688572150005 8.11810693758
O 0.8641419398350001 2.810612180545 3.58075209766
O 5.809148174835 2.794386315545 3.5676227276600003
O 3.332162609675 1.4268697388849998 3.5753620730400004
O 8.277168844674998 1.4106438738849998 3.5622327030400003
O 1.671230759965 7.0572371638749996 8.1366263322
O 6.616236994965 7.0410112988749995 8.1234969622
O 2.611401743205 0.072205856135 5.7315021277
O 7.556407978205 0.055979991135 5.7183727577
O 2.379379691715 8.408291026145 1.16346395402
O 7.324385926715002 8.392065161145 1.15033458402
O 4.838546143955001 4.307255726885001 1.1603942462
O 9.783552378955 4.291029861885001 1.1472648762
O 0.152235290965 4.173241155394999 5.73457183552
O 5.097241525965 4.157015290394999 5.72144246552
O 0.099947947175 7.023087637244999 1.09770743986
O 5.044954182174999 7.006861772244999 1.08457806986
O 4.890451307905001 1.4572998504749997 5.65128826842
O 9.835457542905 1.441073985475 5.63815889842
O 2.422209282625 2.773109970695 5.6567363009600005
O 7.367215517625001 2.756884105695 5.64360693096
O 2.5681899724550004 5.707277517024999 1.09225940732
O 7.513196207454999 5.691051652024999 1.07913003732
O 4.84488945559 7.079026617599999 5.80175231663
O 9.78989569059 7.062800752599999 5.78862294663
O 0.14632193165 1.4015933335600002 1.25743043521
O 5.09132816665 1.38536746856 1.2443010652100002
O 2.62352885225 2.83704223166 1.24963308191
O 7.56853508725 2.82081636666 1.2365037119100002
O 2.36768253499 5.6435777195 5.80954966993
O 7.31268876999 5.6273518545 5.79642029993
O 1.810536537775 1.443625273895 7.89467409157
O 6.755542772775001 1.427399408895 7.88154472157
O 3.191566974905 7.040112422225 3.32466430331
O 8.136573209905 7.023886557225 3.31153493331
O 0.714636748605 5.689578925925 3.33238914671
O 5.659642983605 5.673353060925 3.31925977671
O 4.287466764075 2.794158770195 7.886949248169999
O 9.232472999075 2.777932905195 7.87381987817
O 4.15555049789 0.00108016104 8.19985010169
O 9.10055673289 -0.01514570396 8.18672073169
O 0.8481772791100001 8.48312246196 3.63986238031
O 5.79318351411 8.46689659696 3.62673301031
O 3.30690102047 4.246222519819999 3.63690868833
O 8.25190725547 4.229996654819999 3.62377931833
O 1.69682675653 4.23798010318 8.20280379367
O 6.641832991530001 4.22175423818 8.18967442367
