80   
   
Al 1.61864144982 7.36095115831 6.44757700251
Al 6.65945203482 7.34418585331 6.43058153251
Al 3.47844021644 1.27920084519 1.8133573103900005
Al 8.519250801439998 1.2624355401899998 1.79636184039
Al 0.96380195728 3.03386132113 1.81918666579
Ga 6.00461254228 3.01709601613 1.8021911957900003
Al 4.13327970898 5.60629068237 6.44174764711
Al 9.17409029398 5.58952537737 6.42475217711
Al 0.921090777575 5.685369346165 -0.01173423753
In 5.961901362575 5.6686040411650005 -0.02872970753
In 4.163773622425 2.9495039438350004 4.6186316425300005
Al 9.204584207424999 2.9327386388350005 4.60163617253
Al 1.638115190645 1.367217687855 4.629559980730001
Al 6.678925775645 1.350452382855 4.61256451073
In 3.4777574993550004 7.281053352145 9.25154277427
Ga 8.518568084355001 7.264288047145 9.23454730427
Al 0.8786899500900001 0.26991597261 9.26167961169
Al 5.91950053509 0.25315066761 9.24468414169
Al 4.23712072333 8.37832827189 4.60087473261
Al 9.27793130833 8.36156296689 4.58387926261
In 1.7041535760300002 4.58293744759 4.615184779610001
Al 6.74496416103 4.566172142589999 4.59818930961
Al 3.41165709739 4.06530679691 9.24736956469
Al 8.45246768239 4.04854149191 9.23037409469
Al 3.481841073145 1.356315331365 7.285083774900001
Al 8.522651658144998 1.3395500263650002 7.268088304900002
Al 1.620822085315 7.286248267135 2.645207501
Al 6.661632670315 7.269482962135 2.628212031
Al 4.135917139195 5.669906826715001 2.6391667888
Ga 9.176727724195 5.653141521715001 2.6221713188
In 0.966746019265 2.972656771785 7.291124487100001
Ga 6.007556604265001 2.9558914667850003 7.2741290171
O 4.225622107165 5.781530425585 8.25893877672
O 9.266432692165 5.764765120585 8.241943306720001
O 0.8836148087750001 2.8638734959150005 3.63748403338
O 5.924425393775 2.847108190915 3.62048856338
O 3.3993950547350003 1.455010608775 3.6311262859800006
O 8.440205639734998 1.438245303775 3.61413081598
O 1.709841861205 7.190393312725 8.26529652412
O 6.750652446205 7.173628007724999 8.24830105412
O 2.666186718565 0.077429857105 5.824433655200001
O 7.706997303564998 0.060664552105 5.8074381852000005
O 2.426677820255 8.560900052395 1.1752087301
O 7.467488405255 8.544134747395 1.1582132601
O 4.933322171815 4.385656454855 1.1730781187
O 9.974132756815001 4.368891149855 1.1560826487000002
O 0.159542367005 4.2526734546450005 5.8265642666
O 5.200352952005 4.235908149645001 5.809568796600001
O 0.102974738955 7.150734796615 1.1109994107
O 5.143785323955 7.133969491614999 1.0940039407
O 4.989393667225 1.4873807488850002 5.7402556890000005
O 10.030204252225 1.470615443885 5.723260219
O 2.473385023905 2.827084118265 5.7467191148
O 7.514195608905002 2.8103188132650003 5.729723644800001
O 2.618983382275 5.811031427235001 1.1045359849
O 7.659793967274998 5.794266122235 1.0875405149
O 4.94329015209 7.210776554239998 5.889393233460001
O 9.98410073709 7.19401124924 5.87239776346
O 0.15013253595 1.42779451476 1.27718484814
O 5.19094312095 1.41102920976 1.2601893781400002
O 2.67539127235 2.88905161466 1.2664414471400005
O 7.716201857349998 2.87228630966 1.2494459771400002
O 2.41803141569 5.749519454340001 5.900136634460001
O 7.45884200069 5.732754149340001 5.8831411644600005
O 1.851439244225 1.475189928795 8.02308080243
O 6.892249829225 1.458424623795 8.00608533243
O 3.2561232240550004 7.169490514205 3.37253491877
O 8.296933809055 7.152725209205 3.35553944877
O 0.7311499843550001 5.794682811505 3.38314622177
O 5.7719605693550005 5.777917506505 3.36615075177
O 4.376412483925 2.849997631495 8.01246949943
O 9.417223068925 2.833232326495 7.99547402943
O 4.242053659729999 0.00668711974 8.33256339228
O 9.28286424473 -0.01007818526 8.315567922280001
O 0.86761737227 8.63890437026 3.6936982927200006
O 5.90842795727 8.622139065259999 3.6767028227200007
O 3.37380492911 4.3253417372 3.69177903812
O 8.41461551411 4.3085764322 3.674783568120001
O 1.7358661028900002 4.320249752800001 8.334482646880002
O 6.77667668789 4.303484447800001 8.31748717688
