80   
   
Al 1.57879803067 7.20261777384 6.33104026762
Al 6.506470585670001 7.1853781988400005 6.31815698262
Al 3.3992379164899997 1.25060548394 1.7822468326200005
Al 8.32691047149 1.2333659089400002 1.7693635476200005
Al 0.94134284885 2.9692188711400003 1.7874306049600002
Al 5.86901540385 2.95197929614 1.77454731996
Al 4.036693098310001 5.484004386640001 6.32585649528
Al 8.96436565331 5.46676481164 6.31297321028
Al 0.901406437285 5.567091287375 -0.006403526655
Al 5.829078992285001 5.549851712375 -0.019286811655
Al 4.067395867715 2.883863172625 4.535613891655
Al 8.995068422715 2.8666235976250003 4.522730606655
Al 1.598147795095 1.3348650277250005 4.543201316875001
Al 6.5258203500950005 1.3176254527250002 4.530318031875001
Al 3.394090149905 7.121847802275 9.082650508125
Al 8.321762704905002 7.104608227275 9.069767223125002
Al 0.8521435515000001 0.25681580853 9.08519361426
Al 5.779816106499999 0.23957623353 9.07231032926
Al 4.14004752222 8.19988550473 4.522464927820001
Al 9.06772007722 8.18264592973 4.509581642820001
Al 1.66326999552 4.483766758230001 4.5316464855200005
Al 6.59094255052 4.46652718323 4.5187632005200005
Al 3.3289210782 3.97293455503 9.07601205656
In 8.256593633199998 3.955694980030001 9.06312877156
Al 3.398517221865 1.321777159765 7.149254127235001
Al 8.326189776865 1.3045375847650005 7.136370842235001
Al 1.5837371404949998 7.132482604615 2.601428435805
Ga 6.511409695495 7.115243029615 2.588545150805
Al 4.042102799015001 5.549314255015 2.596145030185
Al 8.969775354015 5.5320746800150005 2.583261745185
Ga 0.940151563345 2.9049455093650005 7.1545375328550005
Al 5.867824118344999 2.8877059343650004 7.1416542478550005
O 4.125645155785 5.654146251385001 8.108454663995001
O 9.053317710784999 5.636906676385001 8.095571378995
O 0.8615775622550002 2.801334287435 3.570715888565001
O 5.789250117255 2.784094712435 3.5578326035650005
O 3.3206491070950004 1.4213334942350002 3.5652830330250005
O 8.248321662095002 1.4040939192350002 3.5523997480250005
O 1.666573610945 7.034147044585 8.113887519535
O 6.594246165944999 7.016907469585 8.101004234535
O 2.602033816305 0.070759071505 5.714967709995
O 7.529706371304998 0.053519496505 5.702084424995
O 2.372814883815 8.381681047955 1.161176151685
O 7.300487438815 8.364441472955 1.148292866685
O 4.822474611055 4.292779502755 1.157735961745
O 9.750147166055 4.275539927755 1.144852676745
O 0.152374089065 4.1596606167050005 5.718407899935
O 5.080046644064999 4.142421041705001 5.705524614935
O 0.101074466875 7.001253550094999 1.095350572225
O 5.028747021874999 6.984013975095 1.082467287225
O 4.873399263005 1.451094435445 5.6352470260950005
O 9.801071818005001 1.433854860445 5.6223637410950005
O 2.414092422725 2.763372709845 5.640729698275001
O 7.341764977725 2.746133134845 5.627846413275001
O 2.560381307155 5.688975275695 1.089867900045
O 7.488053862154999 5.671735700695001 1.076984615045
O 4.82920862333 7.05545487291 5.78593508666
O 9.75688117833 7.03821529791 5.77305180166
O 0.14606191831 1.39708889721 1.2539483213000002
O 5.07373447331 1.37984932221 1.2410650363000002
O 2.61489822391 2.82757263421 1.2464480752000002
O 7.54257077891 2.81033305921 1.2335647902000002
O 2.36037231773 5.624971135910001 5.7934353327600006
O 7.28804487273 5.607731560910001 5.7805520477600005
O 1.804185084695 1.437866786345 7.871982034875
O 6.731857639695 1.420627211345 7.859098749875
O 3.1817721087850006 7.017302800495 3.3159698788450003
O 8.109444663785 7.000063225495 3.3030865938450003
O 0.7132299224850001 5.671472211995001 3.323407854145
O 5.640902477485 5.654232636995 3.310524569145
O 4.272727270995 2.783697374845 7.864544059575
O 9.200399825995 2.766457799845 7.851660774575
O 4.14065574391 -0.00076443685 8.176200660660001
O 9.06832829891 -0.01800401185 8.16331737566
O 0.84689507309 8.45632559285 3.63032287234
O 5.77456762809 8.43908601785 3.6174395873400007
O 3.2960842094500005 4.23197901005 3.62698231568
O 8.223756764449998 4.21473943505 3.6140990306800007
O 1.69146660755 4.223582145950001 8.17954121732
O 6.619139162550001 4.20634257095 8.166657932320001
