80   
   
In 1.71188590165 7.670460233409998 6.672445870789999
Ga 6.968042261650001 7.645814553409998 6.64403991579
Al 3.63273727849 1.32955512969 1.87132569875
Ga 8.88889363849 1.3049094496899998 1.84291974375
In 1.01313072801 3.15965971273 1.88008901421
In 6.26928708801 3.13501403273 1.85168305921
Ga 4.331492452130001 5.84035565037 6.66368255533
In 9.58764881213 5.8157099703699995 6.635276600329999
Al 0.96844769252 5.91687746744 -0.022803961105
Ga 6.224604052520001 5.89223178744 -0.051209916105
Ga 4.35566983248 3.07179319756 4.776812691105
Ga 9.61182619248 3.04714751756 4.748406736105
Ga 1.71987492064 1.42831484588 4.795970608285
Al 6.97603128064 1.40366916588 4.767564653285
Ga 3.65628741436 7.58914946912 9.576725531715
Ga 8.91244377436 7.56450378912 9.548319576715
Ga 0.93628519647 0.2945919677099999 9.60348865155
Ga 6.19244155647 0.26994628771 9.57508269655
In 4.43977304891 8.722814759989998 4.74997011363
In 9.69592940891 8.698169079989999 4.72156415863
In 1.7932418145100004 4.77561301119 4.77602185993
In 7.04939817451 4.75096733119 4.74761590493
Ga 3.5828164308700003 4.241793716509999 9.577436905250002
Ga 8.83897279087 4.21714803651 9.54903095025
Ga 3.6480107573900007 1.41860867639 7.546221056354998
Ga 8.904167117390001 1.39396299639 7.517815101355
Ga 1.70598048855 7.58658954371 2.728914246985
Ga 6.962136848549999 7.56194386371 2.700508291985
Ga 4.32625805919 5.90046767299 2.719720067205
Ga 9.58241441919 5.87582199299 2.691314112205
In 1.02773318675 3.10473054711 7.555415236135
Ga 6.283889546750001 3.08008486711 7.527009281135
O 4.43188666821 6.02555861961 8.547923806054998
O 9.68804302821 6.00091293961 8.519517851054998
O 0.9331380774500002 2.98574385429 3.766373228205
O 6.18929443745 2.96109817429 3.737967273205
O 3.5544221783300003 1.51559605205 3.756532751945
O 8.81057853833 1.49095037205 3.728126796945
O 1.81060256733 7.495706421849999 8.557764282315
O 7.06675892733 7.471060741849999 8.529358327315
O 2.7925957233300007 0.08616249953 6.034998893335
O 8.048752083330001 0.06151681953 6.006592938335
O 2.54494936265 8.909936927170001 1.200631188445
O 7.801105722650002 8.88529124717 1.172225233445
O 5.15281306033 4.56013487853 1.199407998585
O 10.408969420330001 4.5354891985300005 1.171002043585
O 0.18473202565 4.43596454817 6.036222083195
O 5.44088838565 4.41131886817 6.007816128195
O 0.11982312193 7.445220789489999 1.141164787745
O 5.37597948193 7.420575109489999 1.112758832745
O 5.21688924709 1.5504179388099997 5.940566295475
O 10.47304560709 1.5257722588099996 5.912160340475
O 2.59526963613 2.94857438489 5.950622203895
O 7.8514259961300015 2.92392870489 5.922216248895
O 2.74144273289 6.04706434341 1.131108879325
O 7.99759909289 6.02241866341 1.102702924325
O 5.1772074353 7.508512546939999 6.08662624762
O 10.4333637953 7.483866866939999 6.05822029262
O 0.16127445726 1.4881051654600002 1.3221402075400002
O 5.417430817260001 1.46345948546 1.29373425254
O 2.79648222646 3.00559864386 1.30335929664
O 8.052638586459999 2.98095296386 1.27495334164
O 2.5419996661 5.99101906854 6.10540715852
O 7.7981560261 5.96637338854 6.07700120352
O 1.94967284062 1.54585452882 8.314950813905
O 7.20582920062 1.52120884882 8.286544858904998
O 3.4125414853 7.463893087979998 3.479937100215
O 8.6686978453 7.439247407979998 3.451531145215
O 0.7777531037000001 6.03638880478 3.498448720915
O 6.033909463700001 6.01174312478 3.470042765915
O 4.58446122222 2.9733588120200003 8.296439193205
O 9.84061758222 2.9487131320200004 8.268033238204998
O 4.44102898472 0.01430941604 8.633044361599998
O 9.69718534472 -0.01033626396 8.604638406599998
O 0.92472438828 8.99739616896 3.8159142964
O 6.18088074828 8.97275048896 3.7875083414
O 3.5319170658000005 4.503611408 3.81512197086
O 8.788073425799999 4.478965728 3.78671601586
O 1.8338363072 4.508094177 8.63383668714
O 7.089992667200001 4.483448497 8.60543073214
