80   
   
Ga 10.80163743158 5.66352e-06 1.17767175689
Ga 10.80162736658 3.06604538852 1.17768939689
Ga 23.01447970158 1.254352e-05 1.17311646689
Ga 23.014469636579996 3.06605226852 1.17313410689
Al -0.0514107315800002 -1.66352e-06 4.582712053110001
Ga -0.0514207965800001 3.06603806148 4.58272969311
In 12.161431538419999 5.21648e-06 4.578156763110001
Ga 12.16142147342 3.0660449414800004 4.57817440311
Al 4.69521126408 1.53302208602 1.17995822189
Al 4.69520119908 4.59906181102 1.17997586189
Al 16.90805353408 1.53302896602 1.17540293189
Al 16.90804346908 4.59906869102 1.17542057189
Al 6.05500537092 1.53302163898 4.58044322811
Al 6.05499530592 4.59906136398 4.58046086811
Ga 18.26784764092 1.53302851898 4.57588793811
Ga 18.26783757592 4.59906824398 4.57590557811
In 9.267641035549998 1.5330236729 3.95092604371
Al 9.267630970549998 4.5990633979 3.9509436837100007
Ga 21.48048330555 1.5330305529 3.946370753710001
In 21.48047324055 4.5990702779 3.94638839371
Al 1.4825755994499998 1.5330200521 1.80947540629
In 1.48256553445 4.5990597771 1.80949304629
Al 13.69541786945 1.5330269321 1.80492011629
Ga 13.69540780445 4.5990666571 1.80493775629
Al 3.16122493305 3.704e-07 3.9531948687100007
Ga 3.16121486805 3.0660400954 3.953212508710001
Al 15.374067203049997 7.2504e-06 3.94863957871
Al 15.374057138049997 3.0660469754 3.9486572187100006
Ga 7.589001766950002 3.6296e-06 1.80718894129
Ga 7.588991701950001 3.0660433546 1.80720658129
In 19.80184403695 1.05096e-05 1.80263365129
Al 19.80183397195 3.0660502346 1.80265129129
O 9.4608575532 4.4312e-06 2.51551116187
O 9.4608474882 3.0660441562 2.51552880187
O 21.6736998232 1.13112e-05 2.51095587187
O 21.6736897582 3.0660510362 2.51097351187
O 1.2893691467999997 -4.312e-07 3.24487264813
O 1.2893590817999996 3.0660392938 3.24489028813
O 13.5022114168 6.4488e-06 3.24031735813
O 13.5022013518 3.0660461738 3.24033499813
O 3.3544313857000003 1.5330208537 2.51779762687
O 3.3544213207 4.5990605787 2.51781526687
O 15.5672736557 1.5330277337 2.5132423368700003
O 15.5672635907 4.5990674587 2.51325997687
O 7.3957852492999985 1.5330228713 3.24260382313
O 7.3957751843 4.5990625963000005 3.24262146313
O 19.6086275193 1.5330297513 3.23804853313
O 19.6086174543 4.5990694763 3.23806617313
O 8.895995438149999 3.1816e-06 5.126992131850001
O 8.895985373149998 3.0660429066000003 5.12700977185
O 21.10883770815 1.00616e-05 5.12243684185
O 21.10882764315 3.0660497866000003 5.12245448185
O 1.85423126185 8.184e-07 0.6333916781500001
O 1.85422119685 3.0660405434 0.63340931815
O 14.06707353185 7.6984e-06 0.6288363881500001
O 14.06706346685 3.0660474234 0.62885402815
O 2.78956927065 1.5330196041 5.129278596850001
O 2.78955920565 4.5990593291 5.12929623685
O 15.00241154065 1.5330264841 5.12472330685
O 15.002401475649997 4.5990662091 5.12474094685
O 7.96064736435 1.5330241209 0.63112285315
O 7.96063729935 4.599063845900001 0.6311404931500001
O 20.17348963435 1.5330310009 0.6265675631500001
O 20.17347956935 4.599070725900001 0.62658520315
O -1.03787703193 1.53301775018 4.2833403501400005
O -1.03788709693 4.59905747518 4.28335799014
O 11.174965238069996 1.53302463018 4.278785060140001
O 11.174955173069998 4.59906435518 4.27880270014
O 11.78809366693 1.53302597482 1.4770610998600002
O 11.78808360193 4.599065699820001 1.47707873986
O 24.00093593693 1.53303285482 1.47250580986
O 24.00092587193 4.5990725798200005 1.4725234498600002
O 5.06854913557 1.32768e-06 4.28105388514
O 5.06853907057 3.06604105268 4.28107152514
O 17.281391405569998 8.20768e-06 4.2764985951400005
O 17.281381340569997 3.06604793268 4.27651623514
O 5.681677564429999 2.67232e-06 1.47932992486
O 5.68166749943 3.06604239732 1.47934756486
O 17.89451983443 9.55232e-06 1.4747746348600002
O 17.894509769429998 3.06604927732 1.4747922748600002
