80   
   
Al -0.062661875 -0.04831384 5.9551577275
Ga -0.187985625 -0.14494152 17.865473182499997
Al 4.5454333 2.87872572 6.0256659975
Al 4.42010955 2.78209804 17.9359814525
Al 3.08642039 0.084962565 5.9888922225
Al 2.96109664 -0.011665115 17.899207677499998
Al 1.396351035 2.745449315 5.9919315025
In 1.271027285 2.648821635 17.902246957499997
Al 0.0 0.0 0.0
In -0.12532375 -0.09662768 11.910315455
Al 4.608095175 2.92703956 0.07050827
Al 4.482771425 2.83041188 11.980823724999999
Al 3.149082265 0.133276405 0.033734495
In 3.023758515 0.036648725 11.944049949999998
Ga 1.45901291 2.793763155 0.036773775
Al 1.33368916 2.697135475 11.94708923
Al -0.1083420506185001 1.7937445733365 2.9908485549815
Ga -0.2336658006185001 1.6971168933365002 14.901164009981501
Al -1.7984114056185003 4.4542313233365 2.9938878349815
Al -1.9237351556185007 4.3576036433365 14.904203289981501
In 3.040740214381501 1.9270209783365 3.0245830499815
In 2.9154164643815004 1.8303932983365 14.934898504981497
Al 1.3506708593814998 4.5875077283365 3.0276223299815
Al 1.2253471093814996 4.4908800483365 14.937937784981498
Al 1.4420312106184998 0.9033909016635 8.956240675018499
Ga 1.3167074606185 0.8067632216634999 20.866556130018495
Al -0.2480381443815001 3.5638776516635 8.959279955018498
Al -0.3733618943815001 3.4672499716635 20.869595410018498
Al 4.591113475618501 1.0366673066634997 8.9899751700185
Al 4.4657897256185 0.9400396266634998 20.900290625018496
In 2.9010441206185007 3.6971540566635 8.9930144500185
Al 2.7757203706185005 3.6005263766635 20.903329905018495
O -0.1288826132435001 1.7779072965845002 4.942949258055999
O -0.2542063632435 1.6812796165845 16.853264713056
O -1.8189519682435007 4.4383940465845 4.945988538056
O -1.9442757182435009 4.3417663665845 16.856303993055995
O 3.0201996517565006 1.9111837015845 4.976683753055999
O 2.8948759017565004 1.8145560215845 16.886999208055997
O 1.3301302967564996 4.571670451584501 4.979723033056
O 1.2048065467564997 4.4750427715845005 16.890038488056
O 1.4625717732434995 0.9192281784155 7.004139971944
O 1.3372480232434998 0.8226004984154999 18.914455426944
O -0.2274975817565001 3.5797149284155 7.007179251943999
O -0.3528213317565001 3.4830872484154995 18.917494706944
O 4.6116540382435005 1.0525045834154998 7.037874466944
O 4.486330288243501 0.9558769034154998 18.948189921944
O 2.9215846832435006 3.7129913334155 7.040913746943999
O 2.7962609332435004 3.6163636534155 18.951229201944
O 1.4214906479935 0.8875536249114998 10.908341378093
O 1.2961668979935 0.7909259449114999 22.818656833092998
O -0.2685787070065001 3.5480403749114995 10.911380658093
O -0.3939024570065001 3.4514126949115 22.821696113092997
O 4.570572912993501 1.0208300299114998 10.942075873093
O 4.445249162993501 0.9242023499115 22.852391328093
O 2.8805035579935003 3.6813167799115 10.945115153093
O 2.7551798079935006 3.5846890999115 22.855430608093
O -0.0878014879935001 1.8095818500885 1.038747851907
O -0.2131252379935001 1.7129541700885 12.949063306907
O -1.7778708429935006 4.4700686000885 1.0417871319069998
O -1.9031945929935008 4.3734409200885 12.952102586907
O 3.0612807770065005 1.9428582550885 1.072482346907
O 2.9359570270065003 1.8462305750885 12.982797801907
O 1.3712114220064997 4.6033450050885 1.0755216269069998
O 1.2458876720064995 4.5067173250885 12.985837081907
O -0.0313309375 -0.02415692 2.97757886375
O -0.1566546875 -0.1207846 14.88789431875
O 4.5767642375 2.90288264 3.04808713375
O 4.4514404875 2.80625496 14.95840258875
O 3.1177513275 0.109119485 3.01131335875
O 2.9924275775 0.012491805 14.92162881375
O 1.4276819725 2.7696062350000004 3.01435263875
O 1.3023582225 2.6729785550000003 14.924668093749997
O -0.0939928125 -0.07247076 8.932736591249999
O -0.2193165625 -0.16909844 20.84305204625
O 4.5141023625 2.8545688 9.00324486125
O 4.3887786125 2.75794112 20.91356031625
O 3.0550894525000003 0.060805645 8.966471086249998
O 2.9297657025 -0.035822035 20.87678654125
O 1.3650200975 2.7212923950000003 8.96951036625
O 1.2396963475 2.624664715 20.87982582125
