80   
   
Al -0.0409487975 -0.0451096875 6.04254182
In -0.1228463925 -0.1353290625 18.12762546
Ga 4.7553153325 2.8574264375 6.09512372
In 4.6734177375 2.7672070625000003 18.18020736
In 3.1949743875 0.0216473425 6.06457086
Al 3.1130767925 -0.0685720325 18.1496545
Al 1.5193921474999998 2.7906694075000003 6.0730946800000005
Ga 1.4374945524999998 2.7004500325000005 18.15817832
In 0.0 0.0 0.0
Ga -0.081897595 -0.090219375 12.08508364
Al 4.79626413 2.902536125 0.0525819
Al 4.714366535 2.81231675 12.13766554
In 3.235923185 0.06675703 0.02202904
In 3.15402559 -0.023462345 12.10711268
Ga 1.560340945 2.8357790950000004 0.03055286
In 1.4784433499999998 2.74555972 12.1156365
Ga -0.0588843223735 1.845525382878 3.034295167444
Al -0.1407819173735 1.755306007878 15.119378807444
Al -1.7344665623735 4.614547447878 3.042818987444
In -1.8163641573735 4.524328072878 15.127902627444
Al 3.1770388626265 1.912282412878 3.056324207444
In 3.0951412676265 1.822063037878 15.141407847444
Al 1.5014566226264996 4.681304477878001 3.064848027444
Al 1.4195590276264995 4.591085102878001 15.149931667444
Al 1.5373276723734997 0.9000343371219999 9.081341332556
In 1.4554300773734996 0.8098149621219999 21.166424972556
Al -0.1382545676265001 3.669056402122 9.089865152556
Al -0.2201521626265001 3.578837027122 21.174948792556
Ga 4.7732508573735 0.966791367122 9.103370372556
Al 4.6913532623735 0.876571992122 21.188454012556
Ga 3.0976686173735004 3.735813432122 9.111894192556
Ga 3.0157710223735004 3.645594057122 21.196977832556
O -0.072307338194 1.8307384273155 5.01504037604
O -0.1542049331940001 1.7405190523155 17.100124016039995
O -1.747889578194 4.5997604923155 5.02356419604
O -1.829787173194 4.509541117315501 17.10864783604
O 3.163615846806 1.8974954573155 5.0370694160400005
O 3.081718251806 1.8072760823155 17.12215305604
O 1.4880336068059996 4.666517522315501 5.04559323604
O 1.4061360118059996 4.5762981473155016 17.13067687604
O 1.5507506881939996 0.9148212926845 7.10059612396
O 1.4688530931939996 0.8246019176844999 19.185679763960003
O -0.1248315518060001 3.6838433576845 7.10911994396
O -0.2067291468060001 3.5936239826845 19.19420358396
O 4.786673873194 0.9815783226845 7.12262516396
O 4.704776278194 0.8913589476845 19.20770880396
O 3.1110916331940004 3.7506003876845 7.13114898396
O 3.0291940381940003 3.6603810126845 19.216232623960003
O 1.5239046565529997 0.8852473815594999 11.062086541152
O 1.4420070615529996 0.7950280065594999 23.147170181152
O -0.1516775834470001 3.6542694465595 11.070610361152
O -0.2335751784470001 3.5640500715595 23.155694001152
O 4.759827841553 0.9520044115595 11.084115581152
O 4.677930246553 0.8617850365595 23.169199221152
O 3.0842456015530004 3.7210264765595 11.092639401152
O 3.0023480065530004 3.6308071015595 23.177723041152
O -0.045461306553 1.8603123384405 1.053549958848
O -0.1273589015530001 1.7700929634405 13.138633598848
O -1.721043546553 4.629334403440501 1.062073778848
O -1.802941141553 4.5391150284405 13.147157418848
O 3.190461878447 1.9270693684405 1.075578998848
O 3.108564283447 1.8368499934405 13.160662638848
O 1.5148796384469996 4.6960914334405 1.084102818848
O 1.4329820434469995 4.605872058440501 13.169186458848
O -0.02047439875 -0.02255484375 3.02127091
O -0.10237199375 -0.11277421875 15.10635455
O 4.77578973125 2.87998128125 3.07385281
O 4.69389213625 2.7897619062500003 15.15893645
O 3.21544878625 0.04420218625 3.04329995
O 3.13355119125 -0.04601718875 15.12838359
O 1.53986654625 2.8132242512500003 3.05182377
O 1.4579689512499998 2.7230048762500005 15.13690741
O -0.06142319625 -0.06766453125 9.06381273
O -0.14332079125 -0.15788390625 21.14889637
O 4.73484093375 2.83487159375 9.11639463
O 4.65294333875 2.74465221875 21.20147827
O 3.17449998875 -0.00090750125 9.08584177
O 3.09260239375 -0.09112687625 21.17092541
O 1.4989177487499998 2.76811456375 9.09436559
O 1.4170201537499998 2.6778951887500004 21.17944923
