80   
   
Al -0.045936145 -0.0240655075 5.9857701175
Ga -0.137808435 -0.0721965225 17.957310352500002
Ga 4.686637480000001 2.7393421575 6.032259482500001
Ga 4.59476519 2.6912111425 18.0037997175
Al 3.118015475 -0.0085759775 6.0100039025
Al 3.026143185 -0.0567069925 17.981544137500002
In 1.5226858600000002 2.7238526275 6.008025697500001
Al 1.4308135700000002 2.6757216125 17.9795659325
Ga 0.0 0.0 0.0
Al -0.09187229 -0.048131015 11.971540235
Ga 4.732573625000001 2.763407665 0.046489365
Ga 4.640701335 2.71527665 12.0180296
Al 3.16395162 0.01548953 0.024233785
Ga 3.07207933 -0.032641485 11.99577402
Ga 1.5686220050000002 2.747918135 0.02225558
Ga 1.4767497150000002 2.69978712 11.993795815
Ga -0.0318697189130001 1.814566814692 2.9996435078375003
Ga -0.1237420089130001 1.766435799692 14.971183742837502
Ga -1.6271993339130004 4.546995419692 2.9976653028375004
Ga -1.7190716239130004 4.498864404692 14.969205537837501
Ga 3.1320819010870005 1.830056344692 3.0238772928375
Al 3.0402096110870005 1.781925329692 14.995417527837501
Al 1.536752286087 4.562484949692 3.0218990878375003
Ga 1.444879996087 4.514353934692 14.993439322837501
Ga 1.508619433913 0.8852203053079999 8.994152307162501
Al 1.4167471439130002 0.837089290308 20.9656925421625
Ga -0.086710181087 3.617648910308 8.992174102162501
Al -0.178582471087 3.569517895308 20.9637143371625
Ga 4.672571053913001 0.9007098353079999 9.0183860921625
Ga 4.580698763913001 0.8525788203079999 20.9899263271625
In 3.0772414389130005 3.633138440308 9.0164078871625
Ga 2.9853691489130005 3.585007425308 20.987948122162496
O -0.0469275872440001 1.8066781413335 4.961778952354
O -0.1387998772440001 1.7585471263335 16.933319187354
O -1.6422572022440003 4.5391067463335 4.959800747354
O -1.7341294922440005 4.4909757313335 16.931340982354
O 3.1170240327560004 1.8221676713335 4.986012737354001
O 3.0251517427560004 1.7740366563335 16.957552972354
O 1.521694417756 4.5545962763335 4.984034532354
O 1.429822127756 4.5064652613335 16.955574767354
O 1.5236773022440002 0.8931089786665 7.032016862646
O 1.4318050122440005 0.8449779636664999 19.003557097646
O -0.071652312756 3.6255375836665 7.030038657646
O -0.163524602756 3.5774065686665 19.001578892646
O 4.687628922244 0.9085985086665 7.056250647646
O 4.595756632244001 0.8604674936664999 19.027790882646
O 3.0922993072440006 3.6410271136665 7.054272442646
O 3.0004270172440006 3.5928960986665 19.025812677646
O 1.4935615655820005 0.8773316319494999 10.956287751679
O 1.4016892755820003 0.8292006169495 22.927827986679002
O -0.101768049418 3.6097602369495 10.954309546679
O -0.193640339418 3.5616292219495 22.925849781679002
O 4.657513185582001 0.8928211619494999 10.980521536679
O 4.565640895582001 0.8446901469495 22.952061771679002
O 3.0621835705820004 3.6252497669495 10.978543331679
O 2.9703112805820004 3.5771187519495 22.950083566679
O -0.0168118505820001 1.8224554880505 1.037508063321
O -0.1086841405820001 1.7743244730505 13.009048298321
O -1.6121414655820003 4.5548840930505 1.035529858321
O -1.7040137555820003 4.5067530780505 13.007070093321
O 3.147139769418001 1.8379450180505 1.061741848321
O 3.055267479418 1.7898140030505 13.033282083321
O 1.551810154418 4.5703736230505 1.059763643321
O 1.459937864418 4.5222426080505 13.031303878321
O -0.0229680725 -0.01203275375 2.99288505875
O -0.1148403625 -0.06016376875 14.96442529375
O 4.7096055525 2.75137491125 3.03937442375
O 4.617733262500001 2.70324389625 15.01091465875
O 3.1409835475000003 0.00345677625 3.01711884375
O 3.0491112575000003 -0.04467423875 14.98865907875
O 1.5456539325 2.73588538125 3.01514063875
O 1.4537816425 2.68775436625 14.98668087375
O -0.0689042175 -0.03609826125 8.978655176250001
O -0.1607765075 -0.08422927625 20.95019541125
O 4.6636694075000005 2.72730940375 9.02514454125
O 4.571797117500001 2.67917838875 20.996684776250003
O 3.0950474025 -0.02060873125 9.002888961250001
O 3.0031751125 -0.06873974625 20.97442919625
O 1.4997177875 2.71181987375 9.00091075625
O 1.4078454975 2.66368885875 20.972450991250003
