80   
   
Ga 10.95356662187 9.077125e-06 1.208531379915
Ga 10.95356057187 3.198221067125 1.208520284915
Ga 23.360722751870004 2.0752125e-05 1.1644016149149998
Ga 23.360716701870004 3.198232742125 1.164390519915
Ga -0.1295241518699999 -4.892125e-06 4.838291715085
Ga -0.12953020187 3.198207097875 4.838280620085
Ga 12.27763197813 6.782875e-06 4.794161950085
Ga 12.27762592813 3.198218772875 4.794150855085
Ga 4.749985531869999 1.599109234625 1.230590714915
Ga 4.74997948187 4.797321224625 1.230579619915
Ga 17.15714166187 1.599120909625 1.1864609499149998
Ga 17.15713561187 4.797332899624999 1.186449854915
Ga 6.07405088813 1.599106940375 4.816221285085
Ga 6.07404483813 4.797318930375 4.816210190085
Ga 18.48120701813 1.599118615375 4.7720915200850005
Ga 18.48120096813 4.797330605375 4.772080425085
In 9.34839930957 1.599110675535 4.141274982095
In 9.34839325957 4.797322665535 4.1412638870950005
In 21.75555543957 1.599122350535 4.097145217095
Ga 21.75554938957 4.797334340535 4.097134122095
In 1.47563711043 1.5991054994649998 1.905537017905
Ga 1.47563106043 4.797317489465 1.905525922905
In 13.88279324043 1.599117174465 1.861407252905
In 13.88278719043 4.797329164465 1.861396157905
In 3.144824269570001 -1.156965e-06 4.163345412095
In 3.1448182195700007 3.198210833035 4.163334317095
In 15.55198039957 1.0518035e-05 4.119215647095
In 15.55197434957 3.198222508035 4.119204552095
In 7.67921820043 5.341965e-06 1.883477682905
In 7.67921215043 3.198217331965 1.883466587905
In 20.08637433043 1.7016965e-05 1.839347917905
Ga 20.08636828043 3.198229006965 1.839336822905
O 9.56889745009 6.382095e-06 2.625251084165
O 9.568891400090001 3.198218372095 2.625239989165
O 21.97605358009 1.8057095e-05 2.581121319165
O 21.97604753009 3.198230047095 2.581110224165
O 1.2551450199099998 -2.197095e-06 3.4215720108349994
O 1.2551389699099995 3.198209792905 3.421560915835
O 13.66230114991 9.477905e-06 3.377442245835
O 13.66229509991 3.198221467905 3.377431150835
O 3.3653163600900005 1.599106539595 2.647310419165
O 3.36531031009 4.797318529595 2.647299324165
O 15.77247249009 1.599118214595 2.603180654165
O 15.77246644009 4.797330204594999 2.603169559165
O 7.45872005991 1.5991096354049998 3.3995015808349995
O 7.45871400991 4.797321625405 3.3994904858349995
O 19.86587618991 1.599121310405 3.3553718158349994
O 19.86587013991 4.797333300405 3.355360720835
O 8.95100421115 3.082525e-06 5.384099691625
O 8.95099816115 3.198215072525 5.384088596625
O 21.35816034115 1.4757525e-05 5.339969926625
O 21.35815429115 3.198226747525 5.339958831625
O 1.8730382588500003 1.102475e-06 0.662723403375
O 1.87303220885 3.198213092475 0.662712308375
O 14.280194388850001 1.2777475e-05 0.618593638375
O 14.28018833885 3.198224767475 0.618582543375
O 2.7474231211500006 1.599103240025 5.406159026625
O 2.74741707115 4.797315230024999 5.406147931625
O 15.15457925115 1.599114915025 5.362029261625
O 15.15457320115 4.797326905025 5.362018166625
O 8.07661329885 1.599112934975 0.6406529733749999
O 8.076607248850001 4.797324924975 0.640641878375
O 20.48376942885 1.599124609975 0.596523208375
O 20.48376337885 4.797336599975 0.596512113375
O -1.12662784986 1.59910047663 4.52539590842
O -1.12663389986 4.797312466629999 4.52538481342
O 11.28052828014 1.59911215163 4.48126614342
O 11.28052223014 4.797324141629999 4.48125504842
O 11.95066426986 1.59911569837 1.52141609158
O 11.95065821986 4.797327688369999 1.52140499658
O 24.35782039986 1.59912737337 1.47728632658
O 24.35781434986 4.797339363369999 1.47727523158
O 5.076953240140001 3.1913e-07 4.50333657342
O 5.076947190140001 3.19821230913 4.50332547842
O 17.48410937014 1.199413e-05 4.45920680842
O 17.48410332014 3.19822398413 4.45919571342
O 5.74708922986 3.86587e-06 1.54348652158
O 5.747083179860001 3.19821585587 1.54347542658
O 18.15424535986 1.554087e-05 1.49935675658
O 18.154239309860003 3.19822753087 1.49934566158
