80   
   
Ga 7.241368554999998 2.4102984450000005 7.2226567325
In 2.41298788 7.224455525 7.2385912125
Ga 7.226051549999998 7.239264415 2.4085777025
Al 7.234460564999998 7.231722165 7.229925277499999
Ga 2.404578865 7.231997775 2.4172436375
Al 7.232959539999999 2.417840695 2.4013091575
Ga 2.41989587 2.4030318050000004 7.231322667499998
Ga 2.411486855 2.410574055 2.4099750925
In 7.2341797958199985 4.49692461704 4.81512295644
In 2.39739010582 9.31862394704 0.00970986144
Ga 7.224831294179999 5.16018049296 -0.00523609644
In 4.81894790198 7.232372843 4.4957328224
Ga 0.01279222198 2.396140233 9.3184777874
Ga -0.00138115698 7.224080457 5.1601020276
Ga 4.49931807492 4.81688285348 7.23121325608
In 9.319289734920002 0.01026802348 2.39393120108
Al 5.16194635008 -0.00355260348 7.222766143919999
In 2.41176762418 5.14537160296 4.82477741356
In 7.231739284179999 0.33875677296 -0.01250464144
Ga 2.40429809582 4.49720022704 0.00244131644
Ga 4.82699951802 2.409923377 5.1441675476
Ga -0.00979017198 7.231622707 0.3387544526
Al 0.00438320698 2.4036824830000003 4.4971302124
Ga 5.14662934508 4.82541336652 2.40868711392
In 0.34047366508 -0.01081924348 7.23143207892
In 4.49781704992 0.00300138348 2.40259713608
Al 2.41867561418 0.32394788296 4.81750886856
Ga 4.81859050302 2.4174656270000003 0.3228199726
Ga 0.32515666008 4.81814672652 2.41735304892
Ga 7.227271805819998 9.31834833704 4.82239150144
In 4.82735691698 7.224830593000002 9.3170803974
In 9.32079075992 4.82414949348 7.222547321079999
O 5.9842567089 3.769468550640001 6.3205462611900005
O 3.66620361974 8.58456839744 8.144801143189998
O 8.48000160646 5.88293019536 1.49786148561
O 5.984406614899999 5.86877340656 8.13654203501
O 6.32378210485 5.98220120498 3.76793709273
O 8.148380684609998 3.66310782602 8.58253737457
O 1.5023835955899998 8.47878647838 5.88249021383
O 8.140322164949998 5.98164504062 5.86678624387
O 3.77175553539 6.322038043120001 5.98123056287
O 8.586594488950002 8.145780281839999 3.66105076479
O 5.885198303849999 1.49986060816 8.47728440921
O 5.87132022181 8.13806161688 5.98018518813
O 3.6616907111 5.87282766936 3.31935410881
O 5.97974380026 1.05772782256 1.49509922681
O 1.16594581354 3.75936602464 8.14203888439
O 3.6615408051 3.773522813440001 1.50335833499
O 3.32216531515 3.66009501502 5.87196327727
O 1.49756673539 5.97918839398 1.05736299543
O 8.14356382441 1.1635097416200002 3.75741015617
O 1.5056252550499998 3.66065117938 3.77311412613
O 5.87419188461 3.32025817688 3.65866980713
O 1.05935293105 1.49651593816 5.97884960521
O 3.76074911615 8.14243561184 1.16261596079
O 3.77462719819 1.50423460312 3.65971518187
O 1.1474670189 8.59116788064 1.51513316619
O 8.486175279739998 3.77795356744 3.30751908819
O 3.67384592646 1.04669758536 6.32060645061
O 1.1614329048999998 1.04762529656 3.31659185001
O 1.5176264248499998 1.1459685949799998 8.590682057729998
O 3.3115909946099995 8.48480715602 3.77712427957
O 6.32235525559 3.67217164838 1.04520815883
O 3.31734845495 1.16049693062 1.04683605887
O 8.591727195390002 1.5154232131200005 1.14394850787
O 3.780438808950001 3.30954767184 8.483795729789998
O 1.04840861385 6.321559938160001 3.67187131421
O 1.04834651181 3.31691350688 1.16023500313
O 8.4984804011 1.0511283393600002 8.12476720381
O 1.15977214026 5.86434265256 6.33238128181
O 5.97210149354 8.595598634640002 3.31929391939
O 8.484514515099999 8.59467092344 6.32330851999
O 8.12832099515 8.496327625020001 1.04921831227
O 6.334356425389999 1.15748906398 5.86277609043
O 3.32359216441 5.97012457162 8.59469221117
O 6.32859896505 8.481799289380001 8.59306431113
O 1.05422022461 8.126873006879999 8.49595186213
O 5.86550861105 6.332748548160001 1.15610464021
O 8.59753880615 3.32073628184 5.96802905579
O 8.597600908190001 6.3253827131200016 8.47966536687
