40   
   
Al 8.019211957342284 -0.0918874758622315 13.315989147148189
Al 5.000359235 -0.07838387 -0.15104079
In 9.129019458907715 1.3173606246122316 2.0483518578518107
Al 4.128660223907716 1.3957444946122315 2.199392647851811
Al 4.8772079037500005 -0.06321992375 5.15806854
Al 1.5710020751577165 -0.0143337766377685 4.078960372851811
Al -0.164201775 0.020218595 7.07881244
Al 8.224464176092283 -0.1171607196122315 4.467473597148189
Al 2.35240593 1.435351515 6.968947825
In 7.352765165000002 1.356967645 6.817907035
Al 8.101312844842283 -0.1019967733622315 9.776582927148189
Al 4.79510701625 -0.05311062625 8.69747476
In 3.059903166092284 -0.0185582546122315 11.697326827148188
Al 1.4478507439077164 0.0008301696122315 9.388069702851812
Al 5.576510871092284 1.3965746653877684 11.58746221214819
Al 10.576870106092285 1.3181907953877685 11.43642142214819
O 3.37232997805 -0.04986387045 1.1006903776
O 1.3673918741577162 0.0107372811622315 12.85668779845181
O 5.78827337485 1.30866373275 0.9952203472
O 10.78994685685 1.34662585115 0.8414320196000001
O 8.304923045842283 -0.1270678311622315 0.998855501548189
O 6.299984941950001 -0.06646667955 12.7548529224
O 8.91725695515 1.40527155725 12.6405937228
O 3.91558347315 1.36730943885 12.7943820504
O 6.596434919142284 -0.0886407200622315 5.719204764748189
O 4.91990036525 -0.06847675845 3.3175773056
O 9.012378315942286 1.2698868831377683 5.6137347343481885
O 4.013333327942284 1.4646167415377689 5.762027986748189
O 1.5283096136577163 -0.0090769419377685 5.919451607251811
O 9.852493433042286 -0.1456807191622315 3.2157424295481887
O 12.469765446242285 1.3260575176377687 3.101483229948189
O 7.468091964242284 1.2880953992377684 3.255271557548189
O -0.1801785130422836 0.0293501691622315 10.639800870451811
O 8.144005306342283 -0.1072536080622315 7.936091692748189
O 2.2357648837577164 1.3878777723622315 10.53433084005181
O 7.237438365757717 1.4258398907622316 10.380542512451811
O 4.7524145547500005 -0.04785379155 10.5379659944
O 3.0758800008577167 -0.0276898299377685 8.136338535251811
O 5.693152014057717 1.4440484068622317 8.022079335651814
O 10.692197002057716 1.2493185484622311 7.873786083251812
