30   
   
Al -0.00045705529068 0.00193646514732 1.97758768832236
Al -0.00200279029068 0.00848548014732 8.665676783322358
Al -0.00263441470932 0.01116156485268 11.39859050167764
Ga -0.00108867970932 0.00461254985268 4.71050140667764
Ga 2.461218906118492 1.440237347614379 6.435186820416581
Ga 2.459673171118492 1.4467863626143789 13.12327591541658
Ga 2.462133016699852 1.436364417319739 2.480011443771861
Al 2.460587281699852 1.442913432319739 9.16810053877186
Al -0.0130316266998517 2.8601981526802613 10.892431486228137
Al -0.0114858916998517 2.8536491376802613 4.2043423912281375
Ga -0.0121175161184917 2.856325222385621 6.937256109583419
Ga -0.0105717811184917 2.849776207385621 0.2491670145834191
O 3.4229831344688004 0.0159959483368 3.344290512244
O 0.7504809370896 1.3155567039744005 3.3429002132464
O -1.7235898140584005 2.9617354101888003 3.3412076570096
O 1.6986204529104 2.9810058660256 10.0295427167536
O -0.7632352159416002 1.3164870398112003 10.0308806729904
O 1.5098518155312002 0.0154422016632 10.032242277756
O 0.9487326758779716 1.435956710803859 7.8015350443382205
O 3.212156898498772 2.753857586441459 7.80049934534062
O 3.221819707350772 0.1349118726558589 7.802896649103821
O 1.7111950243195715 0.1227441784926589 1.114698918847821
O 1.701532215467572 2.741689892278259 1.1123016150846208
O 3.9746192469403714 1.440645054130259 1.1136632198502208
O -1.5255178569403716 2.8559175158697414 12.258779710149776
O 0.7379063656804283 4.173818391507341 12.257744011152178
O 0.7475691745324284 1.5548726777217412 12.260141314915378
O -0.7630555084987715 1.5427049835585411 5.571943584659379
O -0.7727183173507718 4.1616506973441405 5.569546280896179
O 1.5003687141220283 2.8606058591961414 5.570907885661779
