80   
   
Al -0.0635711625 -0.03973596 5.93681825
In -0.1907134875 -0.11920788 17.810454749999998
Ga 4.5284562575 2.83042704 6.00399319
Al 4.4013139325 2.75095512 17.87762969
Al 3.0610645225 0.069707475 5.97084937
Al 2.9339221975 -0.009764445 17.84448587
Ga 1.4038205725 2.720983605 5.96996207
Al 1.2766782474999998 2.641511685 17.84359857
Al 0.0 0.0 0.0
Ga -0.127142325 -0.07947192 11.873636500000002
Ga 4.59202742 2.870163 0.06717494
Al 4.464885095 2.79069108 11.94081144
Al 3.124635685 0.109443435 0.03403112
Al 2.99749336 0.029971515 11.90766762
Al 1.467391735 2.760719565 0.03314382
Al 1.3402494099999998 2.681247645 11.90678032
In -0.0950633245095 1.7839501851434998 2.979160223116
Al -0.2222056495095 1.7044782651434998 14.852796723116
Ga -1.7523072745095 4.435226315143501 2.978272923116
Ga -1.8794495995095 4.3557543951435 14.851909423116
Al 3.029572360490499 1.8933936201435 3.013191343116
Al 2.902430035490499 1.8139217001435 14.886827843116
In 1.3723284104904991 4.5446697501435 3.012304043116
Ga 1.2451860854904993 4.4651978301435 14.885940543116
Al 1.4353127345094996 0.8972974598564999 8.927620096884
Al 1.3081704095094997 0.8178255398564999 20.801256596884
Ga -0.2219312154905002 3.5485735898564994 8.926732796884
Al -0.3490735404905002 3.4691016698565 20.800369296884
Al 4.5599484195095 1.0067408948565 8.961651216884
Ga 4.4328060945095 0.9272689748564998 20.835287716884
Al 2.9027044695095 3.6580170248565 8.960763916884
Al 2.7755621445095 3.5785451048565 20.834400416884
O -0.115901951577 1.7709247374554995 4.925249245466
O -0.243044276577 1.6914528174554997 16.798885745466
O -1.773145901577 4.4222008674555005 4.924361945466
O -1.900288226577 4.342728947455501 16.797998445466
O 3.008733733422999 1.8803681724555 4.959280365466
O 2.881591408422999 1.8008962524554997 16.832916865466
O 1.3514897834229993 4.5316443024555 4.958393065466
O 1.2243474584229992 4.4521723824555 16.832029565465998
O 1.4561513615769996 0.9103229075445 6.981531074534
O 1.3290090365769995 0.8308509875444999 18.855167574534
O -0.2010925884230002 3.5615990375445 6.980643774533999
O -0.3282349134230002 3.4821271175445 18.854280274534
O 4.580787046577 1.0197663425444998 7.015562194534
O 4.4536447215770005 0.9402944225445 18.889198694534
O 2.923543096577 3.6710424725445 7.014674894533999
O 2.7964007715770003 3.5915705525445 18.888311394534
O 1.4144741074419995 0.8842720121684999 10.873709119234
O 1.2873317824419996 0.8048000921684999 22.747345619234
O -0.2427698425580002 3.5355481421685 10.872821819234
O -0.3699121675580002 3.4560762221684995 22.746458319234
O 4.539109792442001 0.9937154471685 10.907740239234
O 4.411967467442 0.9142435271685 22.781376739234
O 2.881865842442 3.6449915771685 10.906852939234
O 2.754723517442 3.5655196571685 22.780489439234
O -0.074224697442 1.7969756328314996 1.033071200766
O -0.201367022442 1.7175037128314996 12.906707700766
O -1.731468647442 4.448251762831501 1.032183900766
O -1.858610972442 4.368779842831501 12.905820400766
O 3.050410987557999 1.9064190678315 1.067102320766
O 2.923268662557999 1.8269471478315 12.940738820766
O 1.3931670375579992 4.5576951978315 1.066215020766
O 1.2660247125579993 4.4782232778315 12.939851520766
O -0.03178558125 -0.01986798 2.968409125
O -0.15892790625 -0.0993399 14.842045625
O 4.56024183875 2.85029502 3.035584065
O 4.43309951375 2.7708231 14.909220565
O 3.09285010375 0.089575455 3.002440245
O 2.96570777875 0.010103535 14.876076745
O 1.4356061537499998 2.740851585 3.001552945
O 1.30846382875 2.661379665 14.875189445
O -0.09535674375 -0.05960394 8.905227374999999
O -0.22249906875 -0.13907586 20.778863875
O 4.49667067625 2.81055906 8.972402315
O 4.36952835125 2.73108714 20.846038815
O 3.02927894125 0.049839495 8.939258495
O 2.90213661625 -0.029632425 20.812894995
O 1.3720349912499998 2.701115625 8.938371195
O 1.24489266625 2.621643705 20.812007695
