40   
   
Al 2.887469287500374 1.6704101852245443 0.5788144564813468
Al -0.0387901419484111 0.0689561847601524 13.313538913692035
Al -1.450384671249626 4.181699920224545 2.2893552364813465
Al -0.0064329812496263 1.6797969002245443 2.3067113114813464
Ga 1.4384580137503742 4.181307490224545 2.2980069414813467
Al 2.8773501200003735 1.6883987552245443 4.051911576481347
Al 4.3131822144480365 0.8692907800153028 6.954828389826615
Ga 2.869230524448037 3.3711938000153028 6.937472314826614
Al 1.4243395294480377 0.8696832100153028 6.946176684826614
Al -0.0134922231984111 0.0239847597601524 4.630796113692038
Al -0.0286709744484111 0.0509676147601524 9.840441793692039
Al -0.0246717443019626 3.380580515015303 8.665369169826615
Al 1.411160436801589 2.561472489760152 11.568285983692036
Al 2.855112126801589 0.0595694697601524 11.585642058692036
Al -1.477682248198411 2.5618649197601524 11.559634278692036
In 2.8621713687503743 1.7153816102245445 9.261557256481346
O 1.3836798574980378 2.540990659815303 1.1718018802266148
O -0.0025137649019622 4.942817559015303 1.1551400482266148
O -1.3896091201019625 2.541367392615303 1.1634962434266147
O 2.8522545846003746 1.7330104088245444 12.665192434081346
O -0.0035754390484111 0.0063559611601524 1.2271609360920384
O -1.4229041786019627 4.202181800215303 12.685839339426614
O -0.0367105562019624 1.800354901015303 12.702501171426617
O 1.3503847989980378 4.201805067415303 12.694144976226612
O -1.518341920148411 4.233172369560151 5.7852594740920384
O -0.0166321625484111 1.6311932287601525 5.803309792092038
O 1.4860544722515896 4.232764242360152 5.794257247292038
O -0.0092906097019626 3.353237888615303 3.3862615474266144
O 2.8720881529003734 1.6977528116245444 5.857922078881347
O 4.381139463751588 0.8178183299601524 3.4589240132920382
O 2.8794297061515888 3.4197974707601526 3.440873695292038
O 1.376743071351589 0.8182264571601524 3.4499262400920383
O 4.245225051800374 0.9207631800245446 10.450732766881346
O 2.859031429400374 3.3225900792245446 10.434070934881344
O 1.4719360742003735 0.9211399128245444 10.442427130081343
O -0.0234090073484111 0.0416135583601524 8.034431291292037
O -0.0299337114019626 3.389934571415303 10.471379672226615
O 1.4791176857003736 2.5100000404245444 8.072381746081348
O 2.865311308100374 0.1081731412245446 8.089043578081345
O 4.252406663300374 2.5096233076245444 8.080687382881347
