80   
   
Ga 10.77255489152 3.96965e-06 1.189273258835
Ga 10.772545386520001 3.07908939465 1.189292243835
Al 22.96090982152 9.06965e-06 1.185964673835
Al 22.96090031652 3.07909449465 1.185983658835
In -0.0801011315200002 -2.11965e-06 4.6234218761650006
Al -0.0801106365200002 3.07908330535 4.623440861165
Ga 12.108253798479998 2.98035e-06 4.6201132911650005
Al 12.108244293479999 3.07908840535 4.620132276165
In 4.67837267402 1.53954413215 1.190937043835
Al 4.67836316902 4.61862955715 1.190956028835
Ga 16.866727604019996 1.53954923215 1.187628458835
Ga 16.866718099019998 4.61863465715 1.187647443835
Al 6.01407158098 1.5395431428500002 4.621777076165
Ga 6.014062075979999 4.61862856785 4.621796061165001
Al 18.20242651098 1.53954824285 4.618468491165
Ga 18.20241700598 4.61863366785 4.618487476165001
Ga 9.224213541009998 1.5395447721000002 3.9870055244350007
Al 9.22420403601 4.6186301971 3.9870245094350008
In 21.41256847101 1.5395498721 3.9836969394350006
Al 21.41255896601 4.6186352971 3.9837159244350007
In 1.46823071399 1.5395425029 1.825708595565
Al 1.46822120899 4.6186279279 1.825727580565
Ga 13.65658564399 1.5395476029 1.822400010565
In 13.65657613899 4.6186330279 1.822418995565
Ga 3.1300408285099994 -4.904e-07 3.988650324435
Al 3.130031323509999 3.0790849346 3.988669309435001
In 15.318395758509997 4.6096e-06 3.985341739435
Al 15.318386253509997 3.0790900346 3.985360724435
Al 7.56241293149 2.3404e-06 1.824044810565
Al 7.56240342649 3.0790877654 1.824063795565
In 19.75076786149 7.4404e-06 1.820736225565
Al 19.75075835649 3.0790928654000003 1.820755210565
O 9.426060715819998 2.79745e-06 2.5388574258450003
O 9.42605121082 3.07908822245 2.538876410845
O 21.61441564582 7.89745e-06 2.535548840845
O 21.61440614082 3.0790933224500003 2.5355678258450003
O 1.2663930441799998 -9.4745e-07 3.273837709155
O 1.2663835391799998 3.0790844775500004 3.273856694155
O 13.45474797418 4.15255e-06 3.270529124155
O 13.45473846918 3.07908957755 3.270548109155
O 3.33187849832 1.53954295995 2.540521210845
O 3.33186899332 4.61862838495 2.540540195845
O 15.520233428319997 1.53954805995 2.537212625845
O 15.520223923319996 4.61863348495 2.537231610845
O 7.36056575668 1.53954431505 3.272192909155
O 7.3605562516799985 4.61862974005 3.272211894155
O 19.54892068668 1.5395494150500002 3.268884324155
O 19.54891118168 4.61863484005 3.268903309155
O 8.845924325249996 1.366e-06 5.173480642325
O 8.845914820249998 3.0790867910000004 5.1734996273250005
O 21.03427925525 6.466e-06 5.170172057325001
O 21.03426975025 3.079091891 5.170191042325
O 1.84652943475 4.84e-07 0.6392144926750001
O 1.84651992975 3.079085909 0.639233477675
O 14.03488436475 5.584e-06 0.635905907675
O 14.03487485975 3.0790910090000003 0.6359248926750001
O 2.75174210775 1.5395415285 5.175144427325001
O 2.7517326027499998 4.6186269535 5.175163412325
O 14.940097037749997 1.5395466285 5.171835842325001
O 14.940087532749997 4.6186320535 5.171854827325
O 7.940702147249999 1.5395457465 0.6375696926750001
O 7.94069264225 4.6186311715 0.637588677675
O 20.12905707725 1.5395508465 0.634261107675
O 20.12904757225 4.6186362715 0.6342800926750001
O -1.06270590209 1.53954031815 4.32128702212
O -1.06271540709 4.61862574315 4.3213060071200005
O 11.12564902791 1.53954541815 4.31797843712
O 11.12563952291 4.61863084315 4.31799742212
O 11.755150157089998 1.53954695685 1.4914270978800002
O 11.75514065209 4.61863238185 1.49144608288
O 23.943505087089996 1.53955205685 1.48811851288
O 23.94349558209 4.61863748185 1.4881374978800002
O 5.031476315409999 1.5565e-07 4.31962323712
O 5.0314668104099995 3.07908558065 4.319642222120001
O 17.21983124541 5.25565e-06 4.31631465212
O 17.219821740409998 3.07909068065 4.3163336371200005
O 5.66097744459 1.69435e-06 1.4930718978800002
O 5.66096793959 3.0790871193500005 1.49309088288
O 17.84933237459 6.79435e-06 1.48976331288
O 17.849322869589997 3.07909221935 1.4897822978800002
