80   
   
Al 10.81654073253 6.22861e-06 1.176808072715
Ga 10.81653076753 3.07048981361 1.176823817715
Ga 23.04561985253 1.376861e-05 1.1697771577149998
Al 23.04560988753 3.0704973536099995 1.1697929027149998
Al -0.0493747225300002 -1.73861e-06 4.587864302285
Al -0.0493846875300002 3.07048184639 4.587880047285
Ga 12.17970439747 5.80139e-06 4.580833387285
In 12.17969443247 3.07048938639 4.580849132285
Al 4.70199619003 1.53524425111 1.1803314027149998
Ga 4.70198622503 4.60572783611 1.1803471477149998
Al 16.93107531003 1.53525179111 1.173300487715
Ga 16.93106534503 4.605735376109999 1.1733162327149995
Al 6.065159854969999 1.53524382389 4.584356717285
Ga 6.065149889969999 4.60572740889 4.584372462285
Al 18.29423897497 1.53525136389 4.577325802285
Ga 18.29422900997 4.60573494889 4.577341547285
Ga 9.281778163959999 1.53524604134 3.953483329925
In 9.281768198959998 4.60572962634 3.953499074925
Al 21.510857283960004 1.53525358134 3.946452414925
Ga 21.510847318960003 4.60573716634 3.946468159925
Al 1.48537788104 1.53524203366 1.811204790075
Al 1.48536791604 4.605725618659999 1.811220535075
Ga 13.71445700104 1.53524957366 1.804173875075
In 13.71444703604 4.60573315866 1.804189620075
Al 3.16724358646 4.7884e-07 3.956990914925
Ga 3.16723362146 3.07048406384 3.957006659925
Ga 15.39632270646 8.01884e-06 3.949959999925
Ga 15.39631274146 3.07049160384 3.949975744925
Ga 7.59992242354 4.01116e-06 1.807681460075
Al 7.599912458539999 3.07048759616 1.807697205075
In 19.82900154354 1.155116e-05 1.800650545075
In 19.82899157854 3.0704951361599995 1.800666290075
O 9.474592403169998 4.90273e-06 2.516419771025
O 9.474582438169998 3.07048848773 2.516435516025
O 21.70367152317 1.244273e-05 2.509388856025
O 21.70366155817 3.0704960277299995 2.509404601025
O 1.29257360683 -4.1273e-07 3.2482526039749997
O 1.2925636418300002 3.07048317227 3.2482683489749995
O 13.521652726830002 7.12727e-06 3.241221688975
O 13.52164276183 3.07049071227 3.2412374339749994
O 3.36004786067 1.53524292523 2.519943101025
O 3.36003789567 4.605726510229999 2.519958846025
O 15.58912698067 1.53525046523 2.512912186025
O 15.58911701567 4.60573405023 2.512927931025
O 7.40710818433 1.53524514977 3.244745018975
O 7.40709821933 4.60572873477 3.244760763975
O 19.636187304330004 1.5352526897699998 3.2377141039749997
O 19.636177339330004 4.60573627477 3.2377298489749995
O 8.9101783973 3.5814e-06 5.130945114075
O 8.910168432299999 3.0704871664 5.130960859075
O 21.1392575173 1.11214e-05 5.123914199075
O 21.1392475523 3.0704947064 5.123929944075
O 1.8569876127 9.086e-07 0.633727260925
O 1.8569776477 3.0704844936 0.633743005925
O 14.0860667327 8.4486e-06 0.626696345925
O 14.0860567677 3.0704920336 0.6267120909249999
O 2.7956338548 1.5352416039 5.134468444075
O 2.7956238897999994 4.6057251889 5.134484189075
O 15.0247129748 1.5352491439 5.127437529075
O 15.0247030098 4.6057327289 5.127453274075
O 7.971522190200002 1.5352464711 0.630219675925
O 7.9715122252 4.6057300561 0.630235420925
O 20.2006013102 1.5352540111 0.623188760925
O 20.2005913452 4.605737596099999 0.623204505925
O -1.03729010675 1.53523955651 4.28835529331
O -1.03730007175 4.60572314151 4.288371038309999
O 11.19178901325 1.5352470965099998 4.28132437831
O 11.191779048250002 4.60573068151 4.28134012331
O 11.80444615175 1.53524851849 1.47633282669
O 11.80443618675 4.60573210349 1.47634857169
O 24.03352527175 1.53525605849 1.46930191169
O 24.03351530675 4.60573964349 1.46931765669
O 5.07725443575 1.53401e-06 4.28483196331
O 5.077244470749999 3.07048511901 4.28484770831
O 17.306333555749998 9.07401e-06 4.27780104831
O 17.306323590749997 3.07049265901 4.27781679331
O 5.68991157425 2.95599e-06 1.47984041169
O 5.68990160925 3.07048654099 1.47985615669
O 17.918990694249995 1.049599e-05 1.4728094966899998
O 17.91898072925 3.07049408099 1.4728252416899998
