40   
   
Al 1.7881928626777968 0.0029341613221573 0.7143533975876164
In 9.515146177322201 0.0187130286778427 14.561931522412385
Ga 9.760927897677796 1.5892149950721577 3.012216127587616
Al 4.492046437677796 1.5810862150721574 2.7008502275876163
In 5.555972505000001 0.01014989125 5.80644832
In 1.9795868926777969 0.0042815688221573 4.377741677587617
In 0.38278806 0.002694815 7.32677656
Al 9.036661102322201 0.0153445099278427 5.403460822412384
In 2.99094462 1.580173165 7.48157925
Ga 8.25982608 1.588301945 7.792945149999999
Al 9.323752147322205 0.0173656211778427 10.898543242412384
Al 5.747366535 0.01149729875 9.4698366
In 4.150567702322203 0.0099105449278427 12.418871482412383
In 2.266677937677797 0.0063026800721573 9.872824097587616
In 6.758724262322203 1.5873888949278427 12.573674172412383
In 12.0276057223222 1.5955176749278426 12.885040072412384
O 3.647913363 0.00598568895 1.4572808272
O 2.4542440870777966 0.0076231394221573 13.462944611987616
O 6.151743660600001 1.52036490495 1.6058914096
O 11.418522387 1.6543668017500002 1.9171868888
O 8.8490949529222 0.0140240505778427 1.813340308012384
O 7.655425677000002 0.01566150105 13.8190040928
O 10.3679084994 1.65623898505 13.9799988904
O 5.101129773 1.52223708825 13.6687034112
O 7.415693005322203 0.0132014188778427 6.549375749612383
O 5.4564476094000005 0.00944923935 3.9014864144
O 9.919523302922201 1.527580634877843 6.697986332012383
O 4.648539109322203 1.6453249716778426 6.386550011212384
O 2.079111788277797 0.0049822207221573 6.282703583187617
O 10.657629199322205 0.0174876009778427 4.257545895212384
O 13.370112021722205 1.6580650849778429 4.418540692812384
O 8.103333295322203 1.5240631881778426 4.107245213612384
O 0.6457098406777968 0.0041595890221573 11.018739024787616
O 9.224227251722205 0.0166649692778427 8.993581336812383
O 3.1495401382777968 1.518538805022157 11.167349607187615
O 8.416318864677795 1.6525407018221574 11.478645086387615
O 5.8468914306 0.01219795065 11.3747985056
O 3.887646034677797 0.0084457711221573 8.72690917038762
O 6.600128857077797 1.6490232551221575 8.887903967987617
O 11.871113050677796 1.5312789183221571 9.199340288787615
