80   
   
Al 1.59786982608 7.2566091058 6.36973031486
Ga 6.56204515108 7.2363857308 6.35424048986
Ga 3.4260574769 1.2583765318399998 1.7918389406000002
Al 8.3902328019 1.23815315684 1.7763491156000002
In 0.95093915578 2.9910602843 1.7978399931600002
Al 5.91511448078 2.9708369093 1.78235016816
Al 4.072988147200001 5.52392535334 6.3637292623
Al 9.0371634722 5.50370197834 6.348239437299999
Al 0.911289495195 5.607530603715 -0.008453172935
Al 5.875464820195001 5.587307228715 -0.023942997935
Al 4.101509604805 2.9040947812850004 4.562457922935
Ga 9.065684929805 2.8838714062850004 4.546968097935
Al 1.613073631345 1.3451309244649998 4.571791301915
Al 6.5772489563450005 1.3249075494649998 4.556301476915
Al 3.4279696386550005 7.175023020535 9.138468538085
Al 8.392144963655001 7.154799645535 9.122978713085
Al 0.86323243113 0.26095003884 9.14423755521
Al 5.82740775613 0.24072666384 9.12874773021
Al 4.177754350530001 8.25918684904 4.54770977461
Al 9.14192967553 8.23896347404 4.53221994961
Ga 1.6804859444300002 4.51716136534 4.55925319391
Al 6.644661269430001 4.496937990339999 4.54376336891
Al 3.3605008372300005 4.00297552254 9.13269413591
Al 8.324676162230002 3.98275214754 9.117204310910001
Al 3.4281050247450007 1.331689728205 7.1940068494150005
Ga 8.392280349745002 1.311466353205 7.178517024415
Al 1.6009062288350002 7.184831050235 2.615688322245
Ga 6.565081553835 7.164607675235 2.600198497245
Al 4.076576576995 5.588588649455 2.609549142165
Al 9.040751901995002 5.568365274455 2.594059317165
Ga 0.952434676585 2.927932128985 7.200146029495
Al 5.916610001585001 2.907708753985 7.184656204495
O 4.163605018845001 5.695804843325 8.157919273515
O 9.127780343845 5.675581468325 8.142429448515001
O 0.8713939987750001 2.822523989835 3.5929019772250004
O 5.835569323775 2.802300614835 3.5774121522250004
O 3.3478923874950004 1.430943616575 3.586555605865
O 8.312067712495 1.4107202415750002 3.571065780865
O 1.687106630125 7.087385216584999 8.164265644875
O 6.651281955125 7.067161841585 8.148775819875
O 2.624268143765 0.071495452685 5.751074596755
O 7.588443468765 0.051272077685 5.735584771755
O 2.3958179520950003 8.442330300794998 1.165243966465
O 7.359993277095 8.422106925795 1.149754141465
O 4.861275800015 4.3219228939350005 1.161660145505
O 9.825451125015 4.301699518935001 1.146170320505
O 0.158810295845 4.191902859545 5.754658417715
O 5.122985620844999 4.171679484545 5.739168592715
O 0.106413072075 7.053040970095 1.100535052325
O 5.070588397075 7.032817595095 1.085045227325
O 4.913221117065 1.460648326425 5.669283429455
O 9.877396442065002 1.4404249514249998 5.653793604455
O 2.436446714825 2.784008023845 5.675698864575
O 7.400622039825001 2.763784648845 5.660209039575
O 2.5831874743150003 5.729681272675 1.094119617205
O 7.547362799315 5.709457897675001 1.078629792205
O 4.87200710751 7.10631714158 5.81942610757
O 9.83618243251 7.08609376658 5.8039362825700005
O 0.14858738341 1.40766212598 1.2617050472700002
O 5.112762708410001 1.38743875098 1.24621522227
O 2.6365403332100006 2.84723980008 1.25249252987
O 7.60071565821 2.82701642508 1.23700270487
O 2.38405415771 5.666739467479999 5.82863862497
O 7.34822948271 5.64651609248 5.81314879997
O 1.822392030845 1.449774456185 7.922257476215
O 6.786567355845 1.429551081185 7.906767651215
O 3.211081801595 7.068093834735 3.334125999665
O 8.175257126595001 7.047870459735 3.318636174665
O 0.7234738686950001 5.713792005435 3.343252187365
O 5.687649193695001 5.693568630435 3.327762362365
O 4.309999963745 2.804076285485 7.913131288515
O 9.274175288745 2.783852910485 7.897641463514998
O 4.175504826390001 -0.00070345302 8.22767145433
O 9.13968015139 -0.02092682802 8.21218162933
O 0.85988960961 8.51915168602 3.65133736767
O 5.82406493461 8.49892831102 3.63584754267
O 3.3247954304900005 4.26230292748 3.64789167423
O 8.28897075549 4.242079552480001 3.63240184923
O 1.7105990055100002 4.25614530552 8.23111714777
O 6.674774330510002 4.23592193052 8.21562732277
