80   
   
In 1.7038424854199998 7.73876690426 6.72754510711
In 7.01836217042 7.728795234259999 6.70290484711
In 3.6677719063 1.35099903238 1.8894229410700003
Al 8.9822915913 1.34102736238 1.86478268107
In 1.01390593448 3.18847412134 1.8957179443500003
Al 6.328425619479999 3.17850245134 1.8710776843500003
In 4.35770845724 5.9012918153 6.72125010383
In 9.67222814224 5.8913201453 6.69660984383
In 0.962354305335 5.96741273991 -0.02403700942
In 6.276873990335 5.95744106991 -0.04867726942
Al 4.391502159665 3.11000935009 4.8193656244200005
In 9.706021844665 3.10003768009 4.7947253644200005
In 1.7311508706049998 1.44579705277 4.83717398866
Al 7.045670555605 1.4358253827699998 4.81253372866
Al 3.667776474395 7.662954597229999 9.65774709634
Al 8.982296159395 7.652982927229998 9.63310683634
Al 0.9383691564 0.30177485928 9.68485849305
In 6.252888841399999 0.29180318928 9.66021823305
Al 4.460468046839999 8.8069141316 4.79066340701
In 9.77498773184 8.796942461599999 4.76602314701
In 1.79581561474 4.8203392154 4.81610757541
In 7.11033529974 4.8103675454 4.79146731541
Al 3.6030215885 4.28834977548 9.65941432465
Al 8.917541273499996 4.27837810548 9.63477406465
Al 3.678554577165 1.44208721963 7.612017800270001
Ga 8.993074262164999 1.4321155496299998 7.587377540270001
In 1.701172572955 7.653318037809998 2.75087689251
In 7.015692257954999 7.643346367809999 2.72623663251
Al 4.3553073662149995 5.960990612530001 2.74410465147
In 9.669827051215 5.95101894253 2.71946439147
Al 1.024419783905 3.1344146449100005 7.61879004131
Al 6.338939468905 3.1244429749100004 7.59414978131
O 4.4572252111649995 6.08869747027 8.621354796330001
O 9.771744896164998 6.078725800269999 8.596714536330001
O 0.932056965515 3.01334965389 3.79785350009
O 6.246576650515 3.00337798389 3.773213240090001
O 3.586594990935 1.53874372413 3.79036540241
O 8.901114675934998 1.52877205413 3.76572514241
O 1.802687185745 7.56330340003 8.62884289401
O 7.117206870744999 7.553331730029998 8.60420263401
O 2.818623630205 0.09611672731 6.08783908089
O 8.133143315205 0.08614505731 6.06319882089
O 2.546861121835 8.98938838917 1.20998439137
O 7.861380806835 8.97941671917 1.1853441313700002
O 5.196022718455 4.61182918581 1.2120410488900002
O 10.510542403455 4.60185751581 1.1874007888900002
O 0.169462033585 4.473675930669999 6.08578242337
O 5.4839817185849995 4.463704260669999 6.06114216337
O 0.099066079935 7.50596116817 1.14861385825
O 5.413585764934998 7.49598949817 1.12397359825
O 5.265697538025 1.5790426753499998 5.994016134490001
O 10.580217223024999 1.56907100535 5.969375874490001
O 2.611025101885 2.98107477327 6.00174285105
O 7.925544786885 2.97110310327 5.97710259105
O 2.753738516075 6.10392907025 1.14088714169
O 8.068258201075 6.09395740025 1.11624688169
O 5.20849747416 7.58518949434 6.13948381754
O 10.52301715916 7.575217824339998 6.11484355754
O 0.15779855372 1.50087955422 1.3329323191800002
O 5.472318238719999 1.49090788422 1.3082920591800002
O 2.81791462402 3.03808764582 1.3155415379800002
O 8.13243430902 3.02811597582 1.2909012779800002
O 2.54838140386 6.04798140274 6.156874598740001
O 7.862901088859998 6.03800973274 6.132234338740001
O 1.960429216165 1.56572555269 8.38588129396
O 7.274948901164999 1.55575388269 8.36124103396
O 3.426419132995 7.534629775229998 3.50954900908
O 8.740938817994998 7.524658105229999 3.48490874908
O 0.7664710760950001 6.08813897343 3.5266415166800003
O 6.080990761095 6.078167303430001 3.5020012566800003
O 4.620377273065 3.01221635449 8.368788786359998
O 9.934896958064998 3.00224468449 8.344148526359998
O 4.48351905 0.02893201686 8.709004138280001
O 9.798038734999999 0.01896034686 8.684363878280001
O 0.906394119 9.07355372114 3.84599845272
O 6.220913803999999 9.06358205114 3.82135819272
O 3.55528689418 4.5508468541 3.848532348
O 8.869806579179999 4.5408751841 3.823892088000001
O 1.83462627482 4.551638883899999 8.706470243
O 7.14914595982 4.5416672139 8.681829983
