30   
   
In -0.00383100912844 0.0049497136292 2.08657006203908
Al -0.01678726412844 0.0216893636292 9.143231347039078
In -0.02208150087156 0.0285295863708 12.02675250796092
In -0.00912524587156 0.0117899363708 4.97009122296092
Al 2.612577157500992 1.5653994918662903 6.792037575076076
Ga 2.5996209025009915 1.5821391418662905 13.848698860076077
In 2.620239175757872 1.5555000646078905 2.618897450997917
Al 2.607282920757872 1.5722397146078904 9.675558735997917
In -0.0503660757578721 3.075023785392109 11.488337999002082
Al -0.0374098207578721 3.0582841353921086 4.431676714002083
In -0.0427040575009921 3.065124358133709 7.315197874923925
In -0.0297478025009921 3.048384708133709 0.2585365899239233
O 3.6554911221048 0.0436244456292 3.5346893999172
O 0.7887667519796 1.416720393338 3.5264657924168
O -1.8679066465844 3.1618091860328 3.517749615166
O 1.7811063480204 3.213803456662 10.580769657583199
O -0.8415715734156 1.4178891339672 10.580318604834002
O 1.5979476878952 0.0406803843708 10.5878004000828
O 0.9925479687342316 1.5532486938662906 8.230989682954196
O 3.405174918609031 2.9771701715750902 8.231933305453795
O 3.4320672300450314 0.1760399442698907 8.238471478202996
O 1.827641414649832 0.1437293848990907 1.1790017206201966
O 1.800749103213832 2.9448596122042905 1.1724635478709966
O 4.240268364524631 1.5676508626078904 1.1799453431197966
O -1.6703952645246318 3.062872987392109 12.927290106880205
O 0.742231685350168 4.4867944651009095 12.928233729379805
O 0.769123996786168 1.6856642377957094 12.934771902129002
O -0.8353018186090317 1.6533536784249092 5.875302144546203
O -0.8621941300450318 4.454483905730108 5.868763971797003
O 1.5773251312657677 3.0772751561337093 5.876245767045804
