80   
   
In 1.7597932640999998 7.96546870396 6.894612186759999
In 7.2367194341 7.95680519396 6.864324956759999
In 3.781211442 1.3923378595 1.93417023282
In 9.258137612 1.3836743495 1.90388300282
In 1.04567533902 3.2810695091999995 1.94127015328
In 6.522601509019999 3.2724059992 1.91098292328
In 4.49532936708 6.0767370542600005 6.887512266299999
In 9.97225553708 6.068073544260001 6.857225036299999
In 0.98990421101 6.136741958010001 -0.03162315183
Ga 6.46683038101 6.12807844801 -0.06191038183
In 4.529246043989999 3.2044241769900004 4.93852343683
In 10.006172213989998 3.19576066699 4.90823620683
In 1.7881167971499998 1.49227285959 4.96099398151
Al 7.2650429671499985 1.48360934959 4.93070675151
In 3.78650160785 7.89112786541 9.89992187349
In 9.26342777785 7.88246435541 9.869634643489999
Ga 0.97597097871 0.32059825623 9.93777869169
In 6.452897148709999 0.31193474623 9.907491461689999
In 4.59853648999 9.06271799959 4.90322913217
In 10.075462659989999 9.05405448959 4.87294190217
Al 1.85369780059 4.96241632059 4.935893665969999
Al 7.33062397059 4.95375281059 4.905606435969999
In 3.72080966811 4.4208999352300005 9.90511415789
In 9.19773583811 4.412236425230001 9.87482692789
Ga 3.79762279207 1.49191195693 7.806811718649999
Al 9.274548962070002 1.48324844693 7.77652448865
In 1.75336618103 7.87349683273 2.81369350353
Al 7.230292351029998 7.86483332273 2.78340627353
In 4.48913412417 6.13402458063 2.8059564587499994
Al 9.96606029417 6.12536107063 2.77566922875
In 1.06185484893 3.23138420903 7.814548763429999
In 6.53878101893 3.2227206990300004 7.784261533429999
O 4.599598669569999 6.2714420012300005 8.83718802971
O 10.076524839569998 6.262778491230001 8.80690079971
O 0.96314955133 3.10292052151 3.89356849331
O 6.44007572133 3.0942570115100003 3.86328126331
O 3.69926525471 1.58733736581 3.88487576205
O 9.176191424709998 1.57867385581 3.85458853205
O 1.86348296619 7.787025156929999 8.84588076097
O 7.340409136189998 7.778361646929999 8.81559353097
O 2.9104061156900003 0.10597562551 6.24481661535
O 8.387332285689999 0.09731211551 6.21452938535
O 2.62305492201 9.24608703371 1.23021968671
O 8.09998109201 9.23742352371 1.19993245671
O 5.3545338221900005 4.74531592601 1.23426944185
O 10.83145999219 4.73665241601 1.20398221185
O 0.17892721551 4.60674673321 6.24076686021
O 5.65585338551 4.59808322321 6.210479630209999
O 0.10084877697 7.71982554619 1.17105021223
O 5.577774946969999 7.71116203619 1.1407629822299998
O 5.43172477033 1.6315613595899998 6.14472184071
O 10.908650940329998 1.62289784959 6.114434610709999
O 2.69549314687 3.07251481649 6.15373313413
O 8.17241931687 3.06385130649 6.12344590413
O 2.83708040043 6.27887208929 1.16203891881
O 8.31400657043 6.27020857929 1.13175168881
O 5.371060075289999 7.80799954895 6.28797282065
O 10.84798624529 7.79933603895 6.25768559065
O 0.16339938911 1.54482333289 1.36623576167
O 5.64032555911 1.53615982289 1.33594853167
O 2.90432577581 3.1263726773900005 1.34432270077
O 8.38125194581 3.11770916739 1.31403547077
O 2.63013368859 6.22645020445 6.30988588155
O 8.10705985859 6.21778669445 6.27959865155
O 2.02766906697 1.61932872733 8.602474347689999
O 7.504595236969998 1.61066521733 8.572187117689998
O 3.53208387383 7.752753127549998 3.5907653345499995
O 9.00901004383 7.7440896175499985 3.56047810455
O 0.79130238723 6.264490906550001 3.61228019275
O 6.26822855723 6.255827396550001 3.58199296275
O 4.76845055357 3.10759094833 8.58095948949
O 10.24537672357 3.09892743833 8.55067225949
O 4.6286461031299995 0.04009714899 8.93325406845
O 10.10557227313 0.03143363899 8.90296683845
O 0.93487867187 9.33485665801 3.93685867255
O 6.41180484187 9.32619314801 3.90657144255
O 3.66612573189 4.68482615271 3.94154555201
O 9.14305190189 4.6761626427100005 3.91125832201
O 1.89739904311 4.69012765429 8.92856718899
O 7.374325213109999 4.68146414429 8.898279958989999
