40   
   
Al 7.942843243735499 -0.1295758069956932 13.654371751444899
Ga 5.14113615 -0.06164959 -0.216622195
In 9.317611818764503 1.372486759495693 1.9728694523051
In 4.176475668764501 1.4341363494956931 2.1894916473051
Ga 4.896290377500001 -0.0721469125 5.26766820125
Al 1.5232764812645008 -0.0287144480043068 4.1933518460551005
Al -0.32646103 -0.01399643 7.312387195
In 8.3509195312355 -0.1120802694956932 4.5138877576949
Al 2.2451229 1.44535526 7.136623795
Al 7.38625905 1.38370567 6.9200016
Ga 8.1060737587355 -0.1225775919956932 9.998178153944899
Al 4.7330598625 -0.0791451275 8.92386179875
Al 2.883322351235499 -0.0644271094956932 12.0428971476949
In 1.2784307087645008 -0.0392117705043068 9.677642242305101
In 5.454906281235499 1.394924580504307 11.867133747694899
Al 10.596042431235501 1.3332749905043069 11.6505115526949
O 3.4404742069000003 -0.0443011143 1.0958027305500002
O 1.1184648040645009 -0.0460700212043068 13.260711967855102
O 5.909194779700001 1.3566765081 0.9270698665500002
O 11.050412198099998 1.4142410369 0.7050514873500002
O 8.5108854359355 -0.1052220187956932 0.9308180321449
O 6.188876033100001 -0.1069909257 13.095727269450002
O 8.8633233203 1.4107348319 12.91293333345
O 3.7221059019 1.3531703031 13.13495171265
O 6.650257588135499 -0.0947317937956932 5.8263126832449
O 4.9811702453 -0.0685078407 3.36644753055
O 9.118978160935498 1.3062458286043068 5.6575798192449005
O 3.9779232793355 1.4871095374043068 5.8688058300449
O 1.4383966134645008 -0.0323535198043068 6.0945725167551
O 10.051581474335501 -0.1294287451956932 3.2014628321449
O 12.7260287615355 1.3882970124043068 3.0186688961449
O 7.584811343135501 1.3307324836043068 3.2406872753449
O -0.4222312343354991 -0.0218632948043068 10.9900671678551
O 8.1909536265355 -0.1189385201956932 8.0969574832449
O 2.0464893384645007 1.3791143275956932 10.821334303855101
O 7.187706756864501 1.4366788563956931 10.599315924655102
O 4.6481799947 -0.0827841993 10.82508246945
O 2.9790926518645007 -0.0565602462043068 8.365217316755102
O 5.6535399390645 1.4611655113956932 8.1824233807551
O 10.7945948206645 1.2803018025956934 7.9711973699551
