80   
   
Ga 10.73276245951 4.52191e-06 1.156873046385
Al 10.73275005451 2.99121333691 1.156905326385
Al 22.85257304951 9.56191e-06 1.172719461385
Ga 22.85256064451 2.99121837691 1.172751741385
Al 0.0009731704899999 2.2809e-07 4.431991198615001
Al 0.0009607654899998 2.99120904309 4.432023478615
Al 12.12078376049 5.26809e-06 4.447837613615
Ga 12.12077135549 2.99121408309 4.4478698936150005
Al 4.67285096201 1.49560640941 1.148965978885
Al 4.67283855701 4.48681522441 1.148998258885
Al 16.79266155201 1.49561144941 1.164812393885
Ga 16.79264914701 4.48682026441 1.164844673885
Al 6.06087226299 1.49560715559 4.439930546115001
Al 6.060859857989999 4.48681597059 4.439962826115001
Ga 18.18068285299 1.49561219559 4.455776961115
Al 18.18067044799 4.486821010589999 4.455809241115
Ga 9.241907081130002 1.4956084472 3.8364332063950006
Al 9.24189467613 4.4868172622 3.8364654863950007
Al 21.36171767113 1.4956134872 3.852279621395001
Al 21.36170526613 4.4868223022 3.8523119013950007
Ga 1.49181614387 1.4956051177999998 1.752463318605
Ga 1.49180373887 4.4868139328 1.752495598605
Al 13.61162673387 1.4956101577999998 1.7683097336050002
Ga 13.611614328870001 4.486818972799999 1.768342013605
Al 3.182007988630001 1.5197e-06 3.828493858895
Al 3.181995583630001 2.9912103347 3.828526138895001
Al 15.30181857863 6.5597e-06 3.8443402738950008
Ga 15.30180617363 2.9912153747 3.844372553895
Al 7.55172764137 3.2303e-06 1.7603703861050002
Al 7.55171523637 2.9912120453 1.760402666105
Ga 19.67153823137 8.2703e-06 1.776216801105
Al 19.67152582637 2.9912170853 1.7762490811050002
O 9.41736860041 4.04135e-06 2.448513776915
O 9.417356195410001 2.99121285635 2.448546056915
O 21.53717919041 9.08135e-06 2.464360191915
O 21.53716678541 2.99121789635 2.464392471915
O 1.3163670295899998 7.0865e-07 3.140350468085
O 1.3163546245899995 2.99120952365 3.140382748085
O 13.43617761959 5.74865e-06 3.156196883085
O 13.436165214590002 2.99121456365 3.156229163085
O 3.3574571029100007 1.49560592885 2.4406067094150004
O 3.357444697910001 4.486814743849999 2.440638989415
O 15.47726769291 1.49561096885 2.4564531244150003
O 15.47725528791 4.48681978385 2.456485404415
O 7.37626612209 1.49560763615 3.148289815585
O 7.376253717090002 4.486816451149999 3.148322095585
O 19.49607671209 1.49561267615 3.164136230585
O 19.49606430709 4.48682149115 3.164168510585
O 8.886435128249998 3.9503e-06 4.973217625225001
O 8.88642272325 2.9912127653 4.973249905225001
O 21.00624571825 8.9903e-06 4.989064040225
O 21.00623331325 2.9912178053 4.989096320225
O 1.84730050175 7.997e-07 0.615646619775
O 1.84728809675 2.9912096147 0.615678899775
O 13.96711109175 5.8397e-06 0.6314930347750001
O 13.96709868675 2.9912146547 0.6315253147750001
O 2.82652363075 1.4956058378 4.965310557725
O 2.82651122575 4.4868146528 4.965342837725
O 14.94633422075 1.4956108778 4.9811569727250005
O 14.94632181575 4.486819692799999 4.981189252725001
O 7.90719959425 1.4956077272 0.623585967275
O 7.907187189250002 4.4868165422 0.623618247275
O 20.02701018425 1.4956127672 0.6394323822750001
O 20.02699777925 4.486821582199999 0.6394646622750001
O -0.98138065542 1.4956042121899995 4.14083177335
O -0.98139306042 4.486813027189999 4.1408640533500005
O 11.13842993458 1.4956092521899995 4.15667818835
O 11.13841752958 4.48681806719 4.15671046835
O 11.71510388042 1.4956093528099998 1.44806475165
O 11.71509147542 4.486818167809999 1.44809703165
O 23.83491447042 1.49561439281 1.4639111666500002
O 23.834902065420003 4.48682320781 1.46394344665
O 5.07853084208 2.32469e-06 4.14873884085
O 5.0785184370800005 2.99121113969 4.14877112085
O 17.19834143208 7.36469e-06 4.1645852558500005
O 17.19832902708 2.99121617969 4.164617535850001
O 5.65520478792 2.42531e-06 1.4401254041500002
O 5.65519238292 2.99121124031 1.44015768415
O 17.775015377920003 7.46531e-06 1.4559718191500002
O 17.775002972920003 2.99121628031 1.45600409915
