40   
   
In 4.363436855597595 0.8525690969841409 2.4533676151932142
Al 2.901313635597594 3.376391846984141 2.432920140193214
Al 1.4466582805975947 0.8508880819841409 2.3981808551932144
Al 1.399734429402405 4.251078278015858 11.880530474806786
Al -1.5170441455975947 4.249397263015859 11.825343714806786
Al -0.0549209255975948 1.7255745130158586 11.845791189806784
In 0.0 0.0 0.0
Al -0.02359425 0.01910956125 5.3284622850000005
Al -0.03932375 0.03184926875 8.880770475
Al -0.0233296894024055 3.381080685734141 4.1538874751932156
Al 2.869722399402405 1.7208856742658587 10.124823854806786
Al 2.885319575 0.02716043 7.15980314
Al -1.49358222 2.549302165 7.084168905
Al 1.423196355 2.55098318 7.139355665
Al -0.0469239394024055 3.400190246984141 9.482349760193214
Al 2.8933166494024047 1.7017761130158586 4.796361569806786
O -1.5283458956 4.244891645349999 1.1910927898
O -0.0077377468 1.6201159853499998 1.2123581638
O 1.5051038224000002 4.246639900949999 1.2484870202000002
O 1.3412888876 0.8553264590499999 13.0302243098
O 4.374738605599999 0.85707471465 13.0876185402
O 2.8541304568 3.4818503746500005 13.0663531662
O -0.0623388494024055 3.4126751603341408 12.963611786393216
O 2.908731559402405 1.6892911996658586 1.3150995436067858
O 4.289217193802406 0.8990222583658591 6.028349309606786
O 2.8855789026024055 3.321892098365859 6.008719733606785
O 1.489109761802405 0.897408483965859 5.975370020006785
O 1.3572829481975943 4.2045578760341416 8.303341309993215
O -1.4428244838024058 4.202944101634142 8.250362020393215
O -0.0391861926024055 1.780074261634141 8.269991596393217
O -0.01541491 0.01248491335 3.4812620262
O -0.04750309 0.03847391665 10.7279707338
O -0.0315090294024055 3.3877053336341407 6.001087733993216
O 2.8779017394024047 1.7142610263658586 8.277623596006785
O 1.4974161050024049 2.5045299676658592 3.5643738300067858
O 2.901054396202405 0.081660127665859 3.5840034060067856
O 4.297523537002404 2.506143742065859 3.6173531196067854
O -1.4511308270024053 2.5958226179341413 10.661358210393214
O 1.3489766049975953 2.5974363923341413 10.714337499993215
O -0.0546616862024051 5.02030623233414 10.694707923993215
