40   
   
Ga 8.117340289913406 -0.0727386743228464 13.706183214877838
Ga 5.00521997 -0.008605275 -0.05924537
Ga 9.139727822586591 1.4580326880728465 2.298518662622163
Ga 4.134507852586593 1.4666379630728463 2.357764032622163
Ga 4.9172966375 -0.03145609875 5.3426820175
Al 1.6000218750865922 -0.0206412881771536 4.181750670122163
Ga -0.11723111 -0.030467765 7.20256985
Ga 8.263879177413406 -0.0346539680728464 4.702970902377836
Al 2.38794709 1.449194545 7.179225675
In 7.39316706 1.4405892699999998 7.119980305
Ga 8.175955844913409 -0.0575047918228464 10.104898289877838
Ga 4.8586810825 -0.04668998125 8.943966942499998
In 3.141428097413407 -0.0565164580728464 11.964786122377836
Ga 1.5120985425865925 -0.0434921119271536 9.583678057622164
Ga 5.646606297413408 1.4231458519271534 11.941441947377838
Ga 10.651826267413409 1.4145405769271535 11.882196577377837
O 3.3836202909 -0.01103110705 1.1841500229
O 1.4546552986865922 -0.0584213167771536 13.112937284122163
O 5.7885913629 1.40944471055 1.1617396149
O 10.7940167901 1.51955663135 1.1029965257
O 8.321322421313406 -0.0197247632228464 1.1737116758778368
O 6.3923574291 -0.06711497295 13.1024989371
O 8.9977427571 1.47173382945 13.0782209951
O 3.9923173299 1.36162190865 13.1369640843
O 6.642279498313407 -0.0370798001228464 5.946366295277836
O 4.9477767261 -0.02353447985 3.4700138565
O 9.047250570313407 1.3833960174771534 5.923955887277836
O 4.042236057513407 1.5107184882771536 5.983703538077837
O 1.569541786486592 -0.0285629070771536 6.054418831122163
O 9.885478856513409 -0.0322281360228464 3.4595755094778364
O 12.490864184513407 1.5066206663771535 3.4352975674778365
O 7.485438757313408 1.3965087455771534 3.4940406566778366
O -0.1095011365134076 -0.0459179439771536 10.827073450522162
O 8.206435933513406 -0.0495831729228464 8.232230128877838
O 2.2954699354865924 1.3745578736228463 10.804663042522163
O 7.300895362686592 1.4846697944228464 10.745919953322163
O 4.8282009939 -0.05461160015 10.8166351035
O 3.133698221686592 -0.0410662798771536 8.340282664722164
O 5.739083549686592 1.4977825225228465 8.316004722722163
O 10.744098062486591 1.3704600517228462 8.256257071922164
