40   
   
Al 8.078069002580811 -0.067135544756457 13.599047946079283
Al 4.96978983 -0.01153227 -0.054033745
Ga 9.079072077419188 1.4416800497564572 2.2867979539207166
Ga 4.109282247419188 1.4532123197564573 2.3408316989207174
Al 4.889606085 -0.030281655 5.30257226
Al 1.5942315074191875 -0.018426945243543 4.148237913920718
Ga -0.10691166 -0.02499918 7.14214134
Ga 8.211708577580811 -0.035886569756457 4.671371271079281
Al 2.381411165 1.44039029 7.12027046
Ga 7.351200995 1.42885802 7.0662367150000005
Ga 8.131524832580812 -0.054635954756457 10.027977276079282
Ga 4.836150255 -0.042781245 8.87364293
Ga 3.1350070875808123 -0.049353479756457 11.867546356079282
Ga 1.5140477624191877 -0.037176330243543 9.504843918920718
Ga 5.623329912580812 1.416035990243543 11.84567547607928
Ga 10.593119742580809 1.4045037202435433 11.791641731079281
O 3.3612821022 -0.0120918042 1.1774210812
O 1.4616610490191877 -0.049425928443543 13.004493175520718
O 5.750072014200001 1.394682087 1.1564250364000002
O 10.720136077 1.5008422654 1.1028029708000002
O 8.264095290980812 -0.023636971556457 1.1717220144792828
O 6.3644742378000005 -0.0609710958 12.9987941088
O 8.952329975799998 1.4630339530000005 12.9760483936
O 3.982265913 1.3568737746 13.0296704592
O 6.603200849780811 -0.036446103956457 5.9028260972792825
O 4.9174031166 -0.0237818682 3.4456155116
O 8.991990761780812 1.370327787243543 5.881830052479283
O 4.022475164580812 1.499552505643543 5.936275476879282
O 1.5664344758191877 -0.024926732043543 6.005194662320718
O 9.820216305380812 -0.035327035556457 3.4399164448792825
O 12.408072043380812 1.488678013243543 3.417170729679283
O 7.438007980580813 1.3825178348435432 3.4707927952792827
O -0.0944599653808122 -0.037735864443543 10.736298745120717
O 8.159321864180813 -0.048136167956457 8.171020527679282
O 2.294329946619188 1.369038026756457 10.715302700320718
O 7.2643940094191874 1.4751982051564567 10.661680634720717
O 4.8083532234 -0.0492810318 10.7305996784
O 3.122555490219188 -0.036616796043543 8.273389092720718
O 5.710411228219187 1.487388252756457 8.25064337752072
O 10.679926825419187 1.358163534356457 8.196197953120718
