40   
   
Ga 7.833969951327449 -0.2262675937605975 14.412151578535418
Ga 5.47088498 -0.04107583 -0.38100342
In 9.784751168672548 1.4812424625105975 1.7873844764645823
In 4.31386618867255 1.5223182925105974 2.168387896464582
In 4.96838303 -0.10282673875 5.507014665
In 1.4327935086725492 -0.0617204287394025 4.452568531464583
In -0.6700026 -0.082334545 7.85069078
In 8.671473201327451 -0.1233494125105975 4.5987881035354174
In 2.04356943 1.48112054 7.52918284
In 7.514454409999998 1.44004471 7.14817942
In 8.16897125132745 -0.1851003212605975 10.486806188535418
In 4.63338173 -0.14399401125 9.432360055
In 2.5305856213274507 -0.1646081275105975 12.830482303535415
Ga 0.9302915586725492 -0.1234713374894025 10.340586616464583
Ga 5.244157651327449 1.3988469574894025 12.508974363535415
In 10.715042631327453 1.3577711274894024 12.127970943535416
O 3.6063013444000007 -0.04192843705 1.075535107
O 0.6019902846725491 -0.1638152645394025 14.18742509866458
O 6.2113304932 1.45898844455 0.7668874846000001
O 11.6804658364 1.54463205455 0.3754035662000001
O 8.999774475327449 -0.0830054854605975 0.7519496213354177
O 5.995463415600001 -0.20489231295 13.863839613
O 8.817578326800001 1.42110097545 13.5294713554
O 3.3484429836 1.33545736545 13.9209552738
O 6.80688956572745 -0.1242020195605975 6.055326630535418
O 5.142583706 -0.08141975705 3.4658350622
O 9.411918714527449 1.3767148620394023 5.746679008135418
O 3.9392840977274495 1.5445101320394026 6.117201929735417
O 1.2585928326725493 -0.0831274104394025 6.4937481342645835
O 10.53605683692745 -0.1224968054605975 3.1422495765354173
O 13.35817174812745 1.5034964829394026 2.8078813189354173
O 7.8890364049274515 1.4178528729394024 3.1993652373354173
O -0.9342920769274508 -0.1243239445394025 11.79712514346458
O 8.34317192732745 -0.1636933395605975 8.445626585735416
O 1.6707370718725492 1.3765929370605972 11.48847752106458
O 7.139872415072548 1.4622365470605976 11.096993602664583
O 4.459181054 -0.16540099295 11.4735396578
O 2.794875194272549 -0.1226187304394025 8.884048089464583
O 5.616990105472548 1.5033745579605975 8.549679831864582
O 11.089624722272546 1.3355792879605972 8.179156910264583
