80   
   
In -0.01063867 -0.0449929175 6.1718646875
In -0.03191601 -0.1349787525 18.5155940625
Ga 5.052391655 2.8522892575 6.2014644875
In 5.031114315 2.7623034225 18.5451938625
Ga 3.356914075 -0.0577835475 6.1776504125
In 3.335636735 -0.1477693825 18.5213797875
In 1.6848389099999996 2.8650798875 6.1956787625
Ga 1.6635615699999995 2.7750940525 18.5394081375
In 0.0 0.0 0.0
Ga -0.02127734 -0.089985835 12.343729375
Al 5.063030325 2.897282175 0.0295998
Ga 5.041752985 2.80729634 12.373329175
In 3.367552745 -0.01279063 0.005785725
Al 3.346275405 -0.102776465 12.3495151
In 1.6954775799999997 2.910072805 0.023814075
In 1.6742002399999998 2.82008697 12.36754345
In 0.0024806899195 1.921621190042 3.0998784240025
In -0.0187966500805 1.831635355042 15.4436077990025
Ga -1.6695944750805003 4.844484625042001 3.1179067740025
Ga -1.6908718150805002 4.754498790042001 15.4616361490025
In 3.3700334349195 1.908830560042 3.1056641490025
Al 3.3487560949195 1.818844725042 15.449393524002499
Ga 1.6979582699194993 4.831693995042 3.1236924990025003
Ga 1.6766809299194994 4.741708160042 15.467421874002499
In 1.6717195500804996 0.898465779958 9.2676650259975
In 1.6504422100804996 0.808479944958 21.6113944009975
Ga -0.0003556149195002 3.821329214958 9.2856933759975
In -0.0216329549195002 3.731343379958 21.629422750997502
In 5.039272295080501 0.885675149958 9.273450750997501
Al 5.017994955080501 0.795689314958 21.617180125997496
In 3.3671971300805006 3.808538584958 9.291479100997503
Ga 3.3459197900805004 3.718552749958 21.6352084759975
O -0.0010066661065 1.9068725116855 5.123015668565
O -0.0222840061064999 1.8168866766855 17.466745043565
O -1.6730818311065003 4.829735946685501 5.141044018565
O -1.6943591711065005 4.739750111685501 17.484773393565
O 3.3665460788935 1.8940818816855 5.128801393565
O 3.3452687388935 1.8040960466855 17.472530768564997
O 1.6944709138934992 4.8169453166855005 5.146829743565
O 1.673193573893499 4.7269594816855 17.490559118565
O 1.6752069061064996 0.9132144583145 7.244527781435
O 1.6539295661064997 0.8232286233145 19.588257156435002
O 0.0031317411064998 3.8360778933145 7.262556131434998
O -0.0181455988935002 3.7460920583145 19.606285506435
O 5.0427596511065005 0.9004238283145 7.250313506435
O 5.0214823111065 0.8104379933145 19.594042881435
O 3.3706844861065006 3.8232872633145 7.268341856434998
O 3.3494071461065005 3.7333014283145 19.612071231435007
O 1.6682321940544995 0.8837171016015 11.29080227056
O 1.6469548540544996 0.7937312666015 23.63453164556
O -0.0038429709455002 3.8065805366015 11.30883062056
O -0.0251203109455002 3.7165947016015 23.65255999556
O 5.0357849390545 0.8709264716014999 11.29658799556
O 5.014507599054501 0.7809406366014999 23.64031737056
O 3.363709774054501 3.7937899066015 11.31461634556
O 3.3424324340545004 3.7038040716015 23.65834572056
O 0.0059680459455 1.9363698683985 1.07674117944
O -0.0153092940545 1.8463840333985 13.42047055444
O -1.6661071190545005 4.859233303398501 1.09476952944
O -1.6873844590545002 4.7692474683985004 13.43849890444
O 3.3735207909455 1.9235792383985 1.08252690444
O 3.3522434509455 1.8335934033985 13.426256279440002
O 1.7014456259454993 4.8464426733985 1.10055525444
O 1.6801682859454994 4.756456838398501 13.444284629440002
O -0.005319335 -0.02249645875 3.08593234375
O -0.026596675 -0.11248229375 15.42966171875
O 5.05771099 2.87478571625 3.1155321437500003
O 5.036433649999999 2.78479988125 15.45926151875
O 3.36223341 -0.03528708875 3.09171806875
O 3.34095607 -0.12527292375 15.43544744375
O 1.6901582449999997 2.88757634625 3.1097464187500004
O 1.6688809049999995 2.79759051125 15.45347579375
O -0.015958005 -0.06748937625 9.25779703125
O -0.037235345 -0.15747521125 21.60152640625
O 5.04707232 2.82979279875 9.28739683125
O 5.02579498 2.73980696375 21.63112620625
O 3.35159474 -0.08028000625 9.26358275625
O 3.3303174 -0.17026584125 21.60731213125
O 1.6795195749999996 2.84258342875 9.28161110625
O 1.6582422349999997 2.75259759375 21.62534048125
