80   
   
In 0.008139815 -0.0531118925 6.26578861
In 0.024419445 -0.1593356775 18.79736583
In 5.24414211 2.8953569425 6.284989895000001
In 5.260421740000001 2.7891331575 18.816567115
In 3.476809035 -0.0901583025 6.26169287
In 3.493088665 -0.1963820875 18.79327009
In 1.7754728900000003 2.9324033525 6.289085635
In 1.7917525200000002 2.8261795675 18.820662855
In 0.0 0.0 0.0
In 0.01627963 -0.106223785 12.53157722
In 5.2360022950000005 2.948468835 0.019201285
In 5.252281925 2.84224505 12.550778505
In 3.46866922 -0.03704641 -0.00409574
In 3.4849488500000003 -0.143270195 12.52748148
In 1.7673330750000005 2.985515245 0.023297025
In 1.7836127050000004 2.87929146 12.554874245
Ga 0.0260666842690001 1.97593608452 3.149789212007
In 0.0423463142690001 1.86971229952 15.681366432007001
Ga -1.675269460731 4.99849773952 3.177181977007
Ga -1.658989830731 4.89227395452 15.708759197007002
In 3.494735904269 1.93888967452 3.145693472007
Ga 3.511015534269 1.83266588952 15.677270692007001
Ga 1.7933997592689996 4.96145132952 3.1730862370070003
Ga 1.809679389269 4.85522754452 15.704663457007001
In 1.7575460207310003 0.90335537548 9.405085032993
In 1.7738256507310004 0.7971315904799999 21.936662252993
Ga 0.0562098757310004 3.92591703048 9.432477797993
In 0.0724895057310004 3.81969324548 21.964055017992997
In 5.226215240731 0.8663089654799998 9.400989292993
In 5.242494870731001 0.7600851804799998 21.932566512993
In 3.5248790957310008 3.88887062048 9.428382057993002
Ga 3.5411587257310004 3.78264683548 21.959959277992997
O 0.0287349156260001 1.9585260061585 5.203714718365
O 0.0450145456260001 1.8523022211585 17.735291938365
O -1.672601229374 4.9810876611585 5.231107483365
O -1.656321599374 4.8748638761585 17.762684703365
O 3.497404135626 1.9214795961585 5.199618978365001
O 3.513683765626 1.8152558111585 17.731196198364998
O 1.7960679906259998 4.944041251158501 5.227011743365
O 1.812347620626 4.8378174661585005 17.758588963365
O 1.7548777893740004 0.9207654538415 7.351159526634999
O 1.7711574193740005 0.8145416688414999 19.882736746635
O 0.0535416443740004 3.9433271088415 7.378552291634999
O 0.0698212743740004 3.8371033238415 19.910129511635002
O 5.223547009374 0.8837190438414999 7.347063786635
O 5.239826639374001 0.7774952588414998 19.878641006635004
O 3.5222108643740007 3.9062806988415 7.374456551635
O 3.5384904943740008 3.8000569138415 19.906033771635002
O 1.7602142520880004 0.8859452971184999 11.459010539351002
O 1.7764938820880003 0.7797215121184999 23.990587759351
O 0.0588781070880004 3.9085069521185 11.486403304351
O 0.0751577370880004 3.8022831671185 24.017980524351003
O 5.228883472088 0.8488988871184998 11.454914799351002
O 5.245163102088001 0.7426751021184999 23.986492019351
O 3.5275473270880005 3.8714605421185 11.482307564351002
O 3.543826957088001 3.7652367571185 24.013884784351003
O 0.0233984529120001 1.9933461628815 1.095863705649
O 0.0396780829120001 1.8871223778815 13.627440925649
O -1.677937692088 5.0159078178815 1.123256470649
O -1.6616580620880002 4.9096840328815 13.654833690649
O 3.4920676729119995 1.9562997528815 1.091767965649
O 3.508347302912 1.8500759678815 13.623345185649002
O 1.7907315279119995 4.9788614078815 1.119160730649
O 1.807011157912 4.8726376228815 13.650737950649
O 0.0040699075 -0.02655594625 3.132894305
O 0.0203495375 -0.13277973125 15.664471525
O 5.2400722025 2.92191288875 3.15209559
O 5.2563518325 2.81568910375 15.68367281
O 3.4727391275 -0.06360235625 3.1287985650000003
O 3.4890187575 -0.16982614125 15.660375785
O 1.7714029825000002 2.9589592987500004 3.1561913300000004
O 1.7876826125000005 2.8527355137500003 15.68776855
O 0.0122097225 -0.07966783875 9.398682915
O 0.0284893525 -0.18589162375 21.930260135
O 5.2482120175 2.86880099625 9.4178842
O 5.264491647500001 2.76257721125 21.94946142
O 3.4808789425000004 -0.11671424875 9.394587175
O 3.4971585725 -0.22293803375 21.926164395
O 1.7795427975000002 2.9058474062500004 9.421979940000002
O 1.7958224275000003 2.7996236212500003 21.95355716
