40   
   
In 0.94071379564 5.83169696826 -0.01798851655
Al 4.28126408936 3.03402787674 4.72364664655
In 1.6856693788 1.40843599938 4.73780265587
In 3.5363085062 7.457288845619998 -0.03214452587
Al 3.58327610724 1.40188828056 7.455656560139999
Al 1.65996711738 7.476815502299998 2.7004310256599995
Al 4.248381574639999 5.82203222736 2.69434868644
In 0.99486164998 3.0566715555 7.46173889936
Al 1.65975975046 7.55704758144 6.59348120279
In 3.57681490076 1.31758615122 1.85341247701
Al 0.98871094094 3.1142234868 1.85914568455
Al 4.247863710280001 5.760410245860001 6.587747995249999
Al 0.90851282571 0.2866399227899999 9.481964182079999
Al 4.350438594029999 8.60165108943 4.70022460452
Al 1.7498759244300002 4.706394241830001 4.71996672072
In 3.5090754953100003 4.18189677039 9.46222206588
O 4.34364198322 5.941964840220001 8.44808904002
O 0.9074553389600002 2.9415325573200004 3.72104914618
O 3.49633554238 1.49953037334 3.71444310944
O 1.7547617798 7.383967024199999 8.45469507676
O 2.74510280358 0.08799916242 5.96183871798
O 2.48643336996 8.783559421199998 1.19366401062
O 5.06910362458 4.50447602442 1.1940406074799998
O 0.16243254896 4.3670825592 5.96146212112
O 5.078735109649999 7.4062960863899985 6.02020844077
O 0.15346792123 1.46566950225 1.30621367843
O 2.74879094653 2.9671390765500005 1.29236315933
O 2.48341208435 5.9048265120900005 6.03405895987
O 0.09829231936 7.33464584292 1.13060815214
O 5.132651092100001 1.53655095846 5.872966229259999
O 2.54361563996 2.90762611212 5.87974683184
O 2.6873277715 5.96357068926 1.12382754956
O 1.90682360366 1.522643928 8.21209046971
O 3.3422731465 7.35963245448 3.44428954469
O 0.7471441821000001 5.94682166808 3.45792185649
O 4.50195256806 2.9354547144 8.19845815791
O 4.36722638437 0.01963587075 8.52899196563
O 0.88438960463 8.864178086249998 3.77308352437
O 3.4667493618100003 4.44324062883 3.77380925291
O 1.78486662719 4.44057332817 8.528266237089998
