30   
   
Al -0.000950452115 0.00208775243408 1.9852550215710405
Ga -0.004164827115 0.00914841243408 8.699274601571041
Ga -0.005478297885 0.01203356756592 11.44278413842896
Al -0.002263922885 0.00497290756592 4.728764558428961
Ga 2.4702826860907026 1.4482644815095016 6.460619790165676
Ga 2.467068311090703 1.4553251415095017 13.174639370165677
Al 2.472183590320703 1.4440889766413416 2.490109747023596
Al 2.4689692153207026 1.4511496366413417 9.204129327023598
Al -0.0169542903207025 2.874055663358658 10.934489662976404
In -0.0137399153207025 2.866995003358658 4.220470082976405
Al -0.0150533860907025 2.8698801584904983 6.9639796198343245
Al -0.0118390110907025 2.862819498490498 0.2499600398343245
O 3.4377859710456 0.0176705906476 3.3580468026092003
O 0.752546372698 1.3221109143152 3.3559559881900003
O -1.7334958562436 2.9748328050372 3.3535868292008004
O 1.702682927302 2.9960337256848 10.06864342181
O -0.7697448837564 1.3229262449628 10.0695175507992
O 1.5142553189544 0.0168363193524 10.0714873873908
O 0.9505490692513028 1.4434617297230217 7.831916541203837
O 3.223779510903703 2.7682876433906207 7.831320756784635
O 3.2345492719621025 0.1373718041126218 7.8338863777954355
O 1.7186867655077025 0.1240658147602218 1.1194087804046355
O 1.7079170044493028 2.7549816540382213 1.1168431593938355
O 3.9919172071601023 1.4488917284278218 1.1188129959854356
O -1.5366879071601025 2.869252911572178 12.305786414014566
O 0.7365425344922973 4.194078825239778 12.305190629595364
O 0.7473122955506974 1.563162985961778 12.307756250606163
O -0.7685502109037026 1.549856996609378 5.593278653215365
O -0.7793199719621025 4.180772835887376 5.590713032204564
O 1.5046802307486973 2.874682910276978 5.592682868796165
