40   
   
Ga 8.622221178761034 -0.0960459596810696 14.321563537323309
Ga 5.269258805 0.01741388 -0.06222763
In 9.627631251238963 1.5541962146810695 2.4081888064266894
Ga 4.358372446238965 1.5367823346810696 2.4704164364266896
Ga 5.20669832 -0.0315262 5.58244570625
Ga 1.7077614812389652 -0.0322598803189304 4.3695589901766905
In -0.08341398 -0.06525344 7.526231115
In 8.726488653761034 -0.0144791596810696 4.9137746435733085
Ga 2.54634349 1.487475415 7.5086463399999985
In 7.815602294999999 1.504889295 7.446418709999999
In 8.663928168761036 -0.0634192396810696 10.558447979823308
Ga 5.16499133 -0.06415292 9.34556126375
Ga 3.3738158687610342 -0.0971464796810696 12.502233388573309
Ga 1.645200996238965 -0.0811999603189304 10.01423232642669
In 6.003573338761034 1.4555823753189303 12.48464861357331
Ga 11.272832143761034 1.4729962553189304 12.422420983573309
O 3.5689156108 0.0007483536 1.23714450115
O 1.6043281460389651 -0.1131741459189304 13.70208557277669
O 6.093482782 1.4913680544 1.22026311715
O 11.362351832399998 1.6323036876 1.1591178103500002
O 8.767361503961034 0.0174950259189304 1.22592139722331
O 6.8027740392 -0.0964274736 13.69086246885
O 9.537721808 1.5184105356 13.67257430285
O 4.2688527576 1.3774749024 13.73371960965
O 7.026145459561032 -0.0311446860810696 6.213146774723311
O 5.228385954799999 -0.0145603056 3.62562561635
O 9.550712630761032 1.4594750147189304 6.19626539072331
O 4.281064071161033 1.5655828879189306 6.25957534392331
O 1.6860738464389653 -0.0492257747189304 6.3263790800766895
O 10.426831847961033 0.0021863667189304 3.6144025124233106
O 13.161779616761033 1.6170243759189304 3.59611434642331
O 7.892910566361033 1.4760887427189302 3.6572596532233095
O -0.0551421979610345 -0.0978654867189304 11.313604457576687
O 8.685615803561035 -0.0464533452810696 8.601627889923309
O 2.4694249732389646 1.3927542140810696 11.296723073576688
O 7.738294023638966 1.5336898472810698 11.235577766776688
O 5.1433036952 -0.0811188144 11.30238135365
O 3.345544190438965 -0.0645344339189304 8.714860195276689
O 6.080491959238965 1.5503035752810697 8.696572029276691
O 11.35014051883896 1.4441957020810694 8.63326207607669
