80   
   
In 7.6814181175 2.554856855 7.6955647525
In 2.5596999825 7.682613625 7.6927350125
In 7.689321752499999 7.681624384999998 2.5726321925
In 7.684474222499999 7.679612084999999 7.6975422674999985
Al 2.5645475125 7.684625924999998 2.5678249375
In 7.6862656475 2.556869155 2.5706546775
In 2.5566438775 2.557858395 7.6907574975
In 2.5614914075 2.5598706950000003 2.5658474225
In 7.685162119859998 4.76975726436 5.13396400148
In 2.56829151486 9.89952633436 0.00622418648
In 7.690425280139999 5.46873627564 0.00932286852
In 5.12484049954 7.6822558414 4.7841897174
In -0.00783737546 2.5584898514 9.9023150224
In -0.00059300454 7.6849837086 5.4763702326
In 4.77207440168 5.11893934472 7.69382298916
In 9.89864006668 -0.00680512528 2.57174265416
In 5.46598759332 -0.00622409472 7.69249926084
In 2.56080351014 5.46972551564 5.12942568852
In 7.68736917514 0.34398104564 0.00734535352
In 2.56523540986 4.77477110436 0.00424667148
In 5.12112513046 2.5572269386 5.4791999726
In 0.00425452546 7.686996008599999 0.3514601576
In -0.00298984546 2.5605021514 4.7774049474
In 5.47389122832 5.120543435279999 2.56956670084
In 0.34121335332 -0.00322255472 7.68769200584
In 4.773865826680001 -0.00380358528 2.56693539916
In 2.55774740514 0.34497028564 5.12744817352
In 5.12597266046 2.5592392386 0.3542898976
In 0.34911698832 5.12354497528 2.56475944584
In 7.688218224859998 9.89451249436 5.13594151648
In 5.11999296954 7.6802435414 9.9090997924
In 9.89684864168 5.11593780472 7.6986302441599985
O 6.35074997235 4.00119654266 6.73138943133
O 3.89209177087 9.12663588706 8.65802565213
O 9.02181256893 6.236041322139999 1.60984132547
O 6.35025976285 6.23483319814 8.659217816069999
O 6.723702604620001 6.34918484612 4.01643891581
O 8.644303258459999 3.88616145668 9.14220731149
O 1.59840401614 9.01618174292 6.24712076131
O 8.648504195779998 6.34717890428 6.25270723639
O 4.00557212824 6.71883640548 6.36124226609
O 9.13382227812 8.64370873596 3.90683623073
O 6.234396876279999 1.59172610804 9.026313953270002
O 6.24112279236 8.64443570052 6.36408177491
O 3.89521565765 6.23828623734 3.53200025867
O 6.35387385913 1.11284689294 1.60536403787
O 1.22415306107 4.00344145786 8.65354836453
O 3.89570586715 4.004649581860001 1.60417187393
O 3.52226302538 3.89029793388 6.246950774189999
O 1.60166237154 6.35332132332 1.12118237851
O 8.64756161386 1.22330103708 4.01626892869
O 1.59746143422 3.89230387572 4.01068245361
O 6.240393501759999 3.52064637452 3.90214742391
O 1.11214335188 1.59577404404 6.35655345927
O 4.011568753720001 8.64775667196 1.2370757367299998
O 4.00484283764 1.59504707948 3.89930791509
O 1.23387936735 9.13096561266 1.60364961633
O 9.01865743587 4.00089141706 3.5359453171299995
O 3.88913469393 1.11227533214 6.72796663047
O 1.22727694785 1.11509180814 3.52752297107
O 1.59102472962 1.22541885612 9.13456422081
O 3.527432653459999 9.01593052668 4.01446749649
O 6.72496968114 3.89043727292 1.12504042631
O 3.5255213807799994 1.22743751428 1.12101239139
O 9.13213779324 1.59309193548 1.23916193109
O 4.00114440312 3.5199427459599995 9.02496153573
O 1.11752627128 6.72149517804 3.89857413827
O 1.11813997736 3.5246943105199997 1.23238692991
O 9.01208626265 1.10851716734 8.65974007367
O 1.22730819413 6.23859136294 6.72744437287
O 6.35683093607 9.12720744786 3.53542305953
O 9.01868868215 9.12439097186 6.73586671893
O 8.654940900379998 9.01406392388 1.12882546919
O 6.71853297654 1.22355225332 6.24892219351
O 3.520995948859999 6.3490455070800005 9.13834926369
O 6.72044424922 9.01204526572 9.14237729861
O 1.11382783676 8.646390844519999 9.02422775891
O 6.244821226879999 6.71954003404 1.23842815427
O 9.12843935872 3.51798760196 6.36481555173
O 9.12782565264 6.71478846948 9.03100276009
