40   
   
Ga 0.0022009215893708 0.0016741002721946 1.8886265204481016
In 0.0150094384106292 0.0114167197278054 12.8797061995519
Al -1.4639601639617887 4.358962916730595 4.816059123390631
In 0.007179857142766 1.8058058089945417 4.817444819791494
Ga 1.4827487630993903 4.356626547533891 4.812650846744641
In 1.5725100769006102 0.9083485024661092 9.945811563255358
Ga 4.51921900396179 0.9060121332694042 9.94240328660937
Ga 3.048078982857235 3.4591692410054584 9.941017590208505
Al 0.0059951732557566 3.5051078025605444 2.532032037131689
Al 3.0492636667442445 1.7598672474394554 12.226430372868313
Ga 0.0125477737828518 3.5100919466477167 8.154865305313718
In 3.0427110662171493 1.7548831033522827 6.603597104686281
Ga 0.00860518 0.00654541 7.38416636
In 3.033489165 -0.002405175 -0.00350865
Al -1.514464925 2.62834729 -0.001426505
Al 1.5190242400000002 2.625942115 -0.004935155
O 1.521737581092812 2.6301812384414696 3.7173449878798257
O 0.0088954052599494 5.255712254320233 3.7159200113799336
O -1.5085012002668907 2.632583836296457 3.720849878361351
O 4.563760040266891 2.6323912137035426 11.037612531638649
O 1.5335212589071885 2.6347938115585294 11.041117422120173
O 3.046363434740051 0.0092627956797651 11.042542398620066
O 0.018969889663017 3.514976839410354 13.66572876689589
O 3.036288950336984 1.7499982105896457 1.0927336431041104
O 0.0044583354970272 0.0033911706374064 3.8257295023162943
O 0.0127520245029728 0.0096996493625936 10.942603217683706
O -1.432704774530509 4.335278037062779 1.2240860598261314
O 0.0030294191928292 1.8435675887451533 1.2254384067654422
O 1.4430859080960676 4.332997897105501 1.2207598099436474
O 1.6121729319039326 0.9319771528944982 13.537702600056353
O 4.48796361453051 0.9296970129372202 13.534376350173869
O 3.0522294208071723 3.421407461254846 13.533024003234559
O -1.6235880606084827 4.457301072891905 8.662191925474133
O 0.0114973320220969 1.6196174859714816 8.663732045320762
O 1.6515051690314413 4.454704336285926 8.658403826939693
O 1.4037536709685594 0.8102707137140744 6.1000585830603065
O 4.678846900608484 0.8076739771080944 6.096270484525865
O 3.0437615079779032 3.6453575640285183 6.094730364679238
O 0.010231516105423 3.5083301175907518 6.167268064725901
O 3.045027323894578 1.7566449324092486 8.591194345274099
