40   
   
Al 3.2299973645852527 -0.0174554629194062 2.8964789884528046
In 6.395290585414747 -0.0454554670805938 11.058941761547194
Al -0.02156798375 -0.0035148475 1.75532802125
Al -0.15097588625 -0.0246039325 12.28729614875
Ga 6.503130504164746 -0.0278812295805938 2.282301655297195
Ga 3.122157445835253 -0.0350297004194062 11.673119094702804
Al 10.561947795835255 1.398467459580594 4.589287974702804
Al 8.871461074164745 1.3948932254194062 9.284696415297194
Al 3.9725451641647465 1.412289300419406 9.328298125297197
Al 5.663031885835252 1.415863534580594 4.632889684702804
Ga 6.438426649167627 -0.0384257727097031 7.548285858601401
Ga 3.1868613008323736 -0.0244851572902969 6.407134891398597
Al -0.086271935 -0.01405939 7.021312085
Al 4.89891591 -0.017396075 -0.04360171
Al 2.454602505 1.436833845 -0.018917325
Al 7.353518415 1.41943777 -0.062519035
O 4.9208112802676265 -0.0247045825097031 3.4898773965014023
O 4.704476669732374 -0.0382063474902969 10.465543353498596
O 3.252428069410692 -0.0138000212382184 1.0709377059265637
O 6.372859880589308 -0.0491109087617816 12.884483044073436
O 7.277229587089309 1.3546559090382184 3.4717167653734364
O 2.357935898910692 1.3578543753617816 10.489240362226564
O 7.257263372910691 1.4561008509617817 10.445869334626563
O 12.17655706108931 1.4529023846382183 3.4283457377734363
O -0.04399868685 -0.0071702889 3.58086916335
O -0.12854518315 -0.0209484911 10.46175500665
O 8.085449920567628 -0.0310578779097031 1.0747261932014025
O 1.5398380294323737 -0.0318530520902969 12.880694556798595
O 10.63823652576763 1.463249320890297 1.0550521752014024
O 8.79558400621069 1.4457539143617817 12.81916289632656
O 3.8962564342323738 1.3475074391097033 12.862533924798596
O 5.738908953789308 1.3650028456382184 1.0984232036734367
O 8.12924056485 -0.0456748923 8.141684266649998
O 1.4960473851500002 -0.0172360377 5.81373648335
O 6.460857256014747 -0.0347703306805938 5.722744576947195
O 3.1644306939852527 -0.0281405993194062 8.232676173052806
O 10.48565896965 1.3336855989 8.12352363465
O 8.94733833635 1.3440325354999998 5.75023007295
O 4.04883399035 1.4770711611 5.79406246535
O 5.587154623650001 1.4667242245 8.167356027049998
