40   
   
Al -0.0351083996199994 3.4731192059281084 13.99457668368929
Ga 1.4881024315198466 2.58140616678078 2.501617771870126
Al 2.9728921915198465 -0.0033607032192199 2.516022561870126
Al -1.4921307734801537 2.5904725417807803 2.412434886870126
In 2.9837844631001538 1.7110893960411118 0.1093073206905845
Al 2.967267183100154 1.7239271572911117 5.569696484440585
In -0.0128467734801536 0.0099849255307801 4.246969398120126
In -1.503261541899847 4.322039656041112 7.286238530690586
Al -0.0184717818998469 1.7372727860411117 7.300643320690584
Al 1.4769716631001537 4.3129732810411125 7.375421415690584
Al -0.0240968796199994 3.4645606984281083 10.354317241189287
Ga 2.956255663100154 1.7324856647911118 9.209955926940584
Al 4.435420325380002 0.8750067071781082 12.278034637439289
Al 2.950630565380001 3.4597735771781086 12.26362984743929
Al 1.4551871203800006 0.8840730821781082 12.188851752439287
In -0.0293640534801536 0.0228226867807801 9.707358561870127
O 4.408847895100154 0.8839726501911117 1.3801435871405847
O 2.983449725500154 3.365348845391112 1.3663149887405843
O 1.5478240183001533 0.8926763701911117 1.2945280175405849
O -0.0401553430801536 0.0312100241307801 13.274812815520129
O 0.0032116899800006 3.4433355998281083 1.3264738237892897
O 1.5146749511001534 2.572440171891112 13.399508824240586
O 2.940073120700154 0.0910639766911117 13.413337422640586
O 4.375698827900154 2.563736451891112 13.485124393840586
O 1.4174838323800008 2.6246061913281085 6.164764343889289
O -0.007914337219999 5.105982386528109 6.1509357454892895
O -1.4435400444199993 2.6333099113281087 6.07914877428929
O 2.9729931735001536 1.7194767333911118 3.676761574340584
O -0.0185727638801536 0.0144353494307801 6.139904308220126
O -1.4326430316199992 4.278839683028109 3.6230918109892896
O -0.0072448620199994 1.7974634878281082 3.6369204093892895
O 1.4283808451800013 4.270135963028109 3.7087073805892894
O -1.573880141480153 4.36523968093078 10.949385248320127
O -0.0296987910801535 1.6770821361307804 10.964366229920126
O 1.5255623917198478 4.35581065093078 11.042135448720126
O -0.0183708892199994 3.4601102745281085 8.46138233108929
O 2.9505296727001538 1.7369360886911118 11.102890837040585
O 4.5060389245198476 0.8318066826307802 8.614888065420129
O 2.9618575741198465 3.5199642274307803 8.599907083820126
O 1.4065963913198465 0.8412357126307801 8.522137865020126
