80   
   
Al 1.64534196617 7.43653900866 6.50174306572
Al 6.737256426170001 7.41559638366 6.48109844572
Al 3.51598759945 1.29008030928 1.8267862647
Ga 8.60790205945 1.26913768428 1.8061416447
Al 0.97723678813 3.06443929416 1.8337598086
Ga 6.069151248129999 3.04349666916 1.8131151886
In 4.184092777490001 5.66218002378 6.49476952182
In 9.276007237490001 5.64123739878 6.47412490182
Al 0.93492706206 5.741984381145 -0.01460374388
Ga 6.02684152206 5.721041756145 -0.03524836388
Al 4.2115328529400005 2.977828188855 4.65621328888
In 9.30344731294 2.956885563855 4.63556866888
Ga 1.65901136038 1.381589938395 4.66958596008
Al 6.75092582038 1.360647313395 4.64894134008
Ga 3.52518878462 7.355498641604998 9.32968801492
In 8.61710324462 7.334556016604998 9.30904339492
Ga 0.89421437925 0.27570388869 9.34434112791
Al 5.986128839249999 0.25476126369 9.32369650791
Ga 4.28991028529 8.461350139289998 4.63621751823
In 9.38182474529 8.440407514289998 4.61557289823
Al 1.72825590569 4.6296898881900015 4.65383417023
Ga 6.82017036569 4.6087472631900015 4.63318955023
Al 3.45586875885 4.10736413979 9.326724475910002
Ga 8.54778321885 4.08642151479 9.30607985591
Al 3.52326399449 1.370192920575 7.34773758786
Al 8.615178454489998 1.349250295575 7.32709296786
Ga 1.64485881253 7.359536079165 2.66517133996
Al 6.73677327253 7.338593454165 2.64452671996
Al 4.18418042929 5.724890969325001 2.65793254726
Ga 9.276094889289999 5.703948344325001 2.63728792726
Al 0.98394237773 3.004838030415 7.35497638056
Al 6.075856837730001 2.983895405415 7.33433176056
O 4.278765915189999 5.839852440915 8.328189230559998
O 9.37068037519 5.818909815915 8.30754461056
O 0.89735782059 2.893539072945 3.66854455642
O 5.989272280590001 2.872596447945 3.64789993642
O 3.43753564551 1.4684647756650002 3.66090789052
O 8.529450105510001 1.4475221506650002 3.64026327052
O 1.73858809027 7.264926738195 8.335825896459998
O 6.83050255027 7.243984113195 8.31518127646
O 2.69731477423 0.078460786875 5.87498329852
O 7.789229234229999 0.057518161875 5.85433867852
O 2.45888212011 8.645808993705002 1.18090366942
O 7.55079658011 8.624866368705002 1.16025904942
O 4.98764383623 4.426457195625 1.17857197952
O 10.07955829623 4.405514570625 1.15792735952
O 0.16855305811 4.297812584955 5.87731498842
O 5.26046751811 4.276869959955 5.85667036842
O 0.11044879091 7.223237173965 1.11825767938
O 5.20236325091 7.202294548965 1.09761305938
O 5.04514425975 1.500756190455 5.78790665768
O 10.13705871975 1.479813565455 5.76726203768
O 2.50468103211 2.855973550215 5.79567594798
O 7.596595492109999 2.835030925215 5.77503132798
O 2.65091201855 5.868019814205001 1.11048838908
O 7.74282647855 5.847077189205001 1.08984376908
O 5.00320803076 7.28198371653 5.93628066395
O 10.09512249076 7.26104109153 5.91563604395
O 0.15366818772 1.44259703223 1.28804426373
O 5.24558264772 1.42165440723 1.26739964373
O 2.70569022552 2.9165856420300003 1.27490368523
O 7.797604685519999 2.8956430170300003 1.25425906523
O 2.45118599296 5.807995106730001 5.94942124245
O 7.54310045296 5.787052481730001 5.92877662245
O 1.87692896704 1.491860659335 8.09346642006
O 6.96884342704 1.470918034335 8.07282180006
O 3.29715679632 7.240597949985 3.3979534877
O 8.389071256319998 7.219655324985 3.3773088677
O 0.7454915119200001 5.853930512085 3.4109282857
O 5.83740597192 5.832987887085 3.3902836657
O 4.42859425144 2.878528097235 8.08049162206
O 9.52050871144 2.857585472235 8.059847002059998
O 4.2908423709 0.00677249169 8.40462250663
O 9.3827568309 -0.01417013331 8.383977886629998
O 0.8858097281 8.72686088631 3.72311858237
O 5.9777241881 8.70591826131 3.70247396237
O 3.41400063878 4.36779521319 3.72105214127
O 8.50591509878 4.34685258819 3.70040752127
O 1.76265146022 4.36583816481 8.40668894773
O 6.85456592022 4.34489553981 8.386044327729998
