40   
   
Al 8.836814876071772 -0.02915933239961 13.83613859350594
Al 5.107703015 0.00118883 0.04027857
Al 9.419973665178228 1.4868824848996098 2.4722229514940577
Al 4.312270650178228 1.4856936548996098 2.431944381494058
Al 5.234476448750001 -0.0109966675 5.428151145
Ga 1.8011692664282282 -0.00908133260039 4.203993796494058
Ga 0.169031245 -0.01624733 7.1838301
Ga 8.625525819821771 -0.00885016989961 4.856350968505942
Al 2.72239044 1.474465825 7.207738209999999
In 7.830093455000002 1.475654655 7.248016779999999
In 8.752299253571769 -0.02103566739961 10.244223543505942
Al 5.31899207125 -0.0191203325 9.020066195
In 3.686854049821772 -0.02628632989961 11.99990249850594
Ga 1.9279427001782283 -0.02126683010039 9.591866371494058
In 6.240213244821772 1.46442682510039 12.02381060850594
Al 11.34791625982177 1.46561565510039 12.06408917850594
O 3.5019733618500006 -0.0019536417 1.2486405446
O 2.010768010228228 -0.02922802180039 13.111943120494056
O 5.95319818905 1.4291309871 1.2715923302
O 11.06086181905 1.5495293163 1.3121724062
O 8.542700509771771 -0.00088897819961 1.3362742195059425
O 7.051495158150001 -0.0281633583 13.1995767954
O 9.70698872095 1.5221783229 13.2244412298
O 4.59932509095 1.4017799936999995 13.1838611538
O 7.019796166671772 -0.01199264159961 6.064712943105942
O 5.19052832505 -0.0067723617 3.560355319
O 9.471020993871774 1.4190919872003898 6.087664728705942
O 4.363278593871772 1.53711265640039 6.047687664705942
O 1.8451173901282285 -0.01330563840039 6.071789622494058
O 10.231255472971773 -0.00570769819961 3.647988993905942
O 12.886749035771773 1.54463398300039 3.6728534283059417
O 7.779085405771773 1.4242356538003895 3.6322733523059414
O 0.3222130470282284 -0.02440930180039 10.800228346094055
O 8.708351129871769 -0.01681136159961 8.376427717505942
O 2.773437874228228 1.40667532699961 10.823180131694055
O 7.881101504228229 1.52707365619961 10.863760207694057
O 5.36294019495 -0.0233446383 10.887862021
O 3.533672353328228 -0.01812435840039 8.383504396894057
O 6.189165916128228 1.53221732279961 8.408368831294057
O 11.296908316128228 1.4141966535996098 8.448345895294059
