40   
   
In 7.99950104208239 -0.0559428910402873 13.38485883848188
Al 4.89891318 -0.01739804 -0.043599955
Ga 8.957727605417606 1.4089481797902874 2.263390056518118
Al 4.0588144254176095 1.4263462197902874 2.3069900115181174
Ga 4.8342093525 -0.02794218875 5.222388275
Al 1.5826458929176097 -0.0140003514597127 4.081235351518118
Al -0.08627177 -0.014058865 7.02131764
Al 8.107340754582392 -0.0383693097902873 4.608211788481881
In 2.36832882 1.42277299 7.00240171
Al 7.267242 1.40537495 6.9588017550000005
Ga 8.042636927082391 -0.0489134585402873 9.874200018481881
Al 4.7910734675 -0.03497162125 8.733047095
Al 3.1221558045823903 -0.0350301347902873 11.673129383481882
Al 1.5179420654176097 -0.0245445002097127 9.347223581518119
Al 5.57675639458239 1.4018017202097128 11.654213453481882
Al 10.47566957458239 1.3844036802097128 11.610613498481882
O 3.3165947615000007 -0.01422067425 1.1639760294
O 1.4756688981176094 -0.0314333440597127 12.78766922511812
O 5.6730113279 1.36513790655 1.1458167366
O 10.572336027899999 1.4633823365500005 1.1024475054000002
O 8.14961392188239 -0.0314804659402873 1.167766144881882
O 6.3086880585000005 -0.04869313575 12.7914593406
O 8.861472672099998 1.4456119934500002 12.7717867734
O 3.9621479721 1.34736756345 12.8151560046
O 6.52502233608239 -0.0351919440402873 5.815787772881881
O 4.8566400127 -0.02428688385 3.3968456886
O 8.88143890248239 1.3441666367597127 5.797628480081881
O 3.9829372424823912 1.477207146759713 5.841459158881881
O 1.560215232717609 -0.0176556563597127 5.906777937918118
O 9.68965917308239 -0.0415466755402873 3.4006358040818823
O 12.24244378668239 1.452758453659713 3.380963236881882
O 7.343119086682391 1.3545140236597126 3.4243324680818823
O -0.0643763530823906 -0.0213671344597127 10.554799565918119
O 8.06506758728239 -0.0452581536402873 8.048657432081882
O 2.292040213317609 1.3579914463402871 10.536640273118119
O 7.191364913317609 1.4562358763402876 10.493271041918119
O 4.7686428073 -0.03862692615 10.5585896814
O 3.1002604839176087 -0.0277218659597127 8.139647597118119
O 5.65304509751761 1.4665832632402875 8.119975029918118
O 10.551546757517608 1.3335427532402873 8.076144351118119
