40   
   
In 7.835797709979734 0.188725212617501 13.638043124677935
Al 6.681128025020266 0.104097947382499 2.334304399072064
Al 5.09678137 0.06830633 -0.035965525
Al 9.20954466502027 1.6036842423824993 2.306133129072064
Al 4.112763295020265 1.535377912382499 2.342098654072064
Al 4.838975245 0.09760772 5.32411584125
Al 1.4984112800202658 0.045558747382499 4.156963712822065
Al 8.265474584979733 0.139889562617501 4.704574180927936
In 2.18467514 1.538654815 7.118603885000001
Al 7.28145651 1.606961145 7.082638360000001
In 8.007668459979735 0.169190952617501 10.064655547177937
Al 4.667104495 0.11714198 8.89750341875
Ga 2.824951714979734 0.110651752617501 11.887314860927937
In 1.240605155020266 0.074860137382499 9.517045079072064
Al 5.353368354979734 1.6102380476175011 11.859143590927935
Al 10.450149724979735 1.6785443776175013 11.823178065927936
O 3.4073752766000003 0.0530899528 1.19049521935
O 1.072171820020266 0.094003712182499 13.018964905022065
O 5.834655251000001 1.492692796 1.16345080015
O 10.9298386974 1.6782337764000002 1.1266701945500002
O 8.433907919979735 0.120745987817501 1.2026543549779358
O 6.098704463400001 0.1616597472 13.03112404065
O 8.728257769 1.721229494 13.00182591985
O 3.6330743226000006 1.5356885136000002 13.03860652545
O 6.576068491579734 0.124673185417501 5.931034925277936
O 4.928348035000001 0.0874499048 3.46595430095
O 9.003348465979734 1.564276028617501 5.903990506077936
O 3.9049691723797344 1.613204349017501 5.939140950477936
O 1.409038490020266 0.055716562582499 6.015125253122065
O 9.954880678379736 0.155105939817501 3.478113436577936
O 12.584433983979736 1.714675686617501 3.448815315777936
O 7.489250537579735 1.5291347062175011 3.485595921377936
O -0.4488009383797342 0.059643760182499 10.743505823422064
O 8.097041249979732 0.159033137417501 8.206494006877934
O 1.978479036020266 1.4992466033824987 10.716461404222065
O 7.073662482420265 1.684787583782499 10.679680798622066
O 4.577731705000001 0.1272997952 10.75566495905
O 2.930011248420266 0.090076514582499 8.290584334722066
O 5.559564554020265 1.6496462613824991 8.261286213922066
O 10.657943847620263 1.6007179409824992 8.226135769522065
