40   
   
Al 3.2171113114452656 -0.017240937063545 2.8820211825456465
Al 6.374678618554733 -0.042290812936455 10.999825777454353
Al -0.0198479375 -0.00260298 1.74526123
Al -0.1389355625 -0.01822086 12.21682861
Al 6.473918306054733 -0.029275912936455 2.2735196274543537
In 3.1178716239452657 -0.030255837063545 11.608327332545649
Al 10.515909293945267 1.3881141129364551 4.5692304875456475
Al 8.837885761054734 1.3876241520635448 9.236634062454351
Al 3.962599046054733 1.406978107063545 9.276755502454352
Al 5.6406225789452655 1.4074680679364553 4.609351927545648
Al 6.414374589472633 -0.0370848535317725 7.509303456272824
In 3.177415340527366 -0.0224468964682275 6.372543503727177
Al -0.07939175 -0.01041192 6.98104492
Al 4.875286715 -0.019353955 -0.04012144
In 2.443359205 1.427311985 -0.017930485
Al 7.31864592 1.40795803 -0.058051925
O 4.900330055672632 -0.0248526743317725 3.473136263472824
O 4.691459874327367 -0.0346790756682275 10.408710696527178
O 3.2377531680331004 -0.0145338376553066 1.0669493637247482
O 6.354036761966897 -0.0449979123446934 12.814897596275252
O 7.245954794966899 1.3453668316553065 3.455922998675252
O 2.3568095622331007 1.3541202263446934 10.43001401252475
O 7.232553545033101 1.4497253883446934 10.39006299132475
O 12.121698777766898 1.4409719936553065 3.415971977475252
O -0.0404897925 -0.0053100792 3.5603329092000005
O -0.1182937075 -0.0155137608 10.4017569308
O 8.047506748272633 -0.0336991527317725 1.0739032690728232
O 1.5442831817273668 -0.0258325972682275 12.807943690927177
O 10.588600321472633 1.4507053116682276 1.0552555646728232
O 8.765652098833105 1.4399920699446935 12.75077940332475
O 3.8899080185273673 1.3443869083317723 12.790730425327176
O 5.7128562411668975 1.3551001500553064 1.095206586675252
O 8.097593333699999 -0.0446965908 8.100418537199998
O 1.4941965963 -0.0148351592 5.7814284228
O 6.435016348554733 -0.034377753736455 5.6942316382543545
O 3.156773581445265 -0.025153996263545 8.187615321745648
O 10.4432181705 1.3255229148 8.0832052716
O 8.910119616699998 1.3352562332 5.7224888596
O 4.0352901695000005 1.4695693052 5.7627807184
O 5.568388723300001 1.4598359868000002 8.1234971304
