80   
   
In 1.74283600084 7.8719249242 6.824503517549999
In 7.150427465840001 7.8592065891999985 6.795200627549999
In 3.73419261572 1.3730677601599997 1.91457028915
Ga 9.14178408072 1.3603494251599997 1.88526739915
In 1.0347317991800002 3.24263675774 1.92200536091
Ga 6.44232326418 3.22991842274 1.89270247091
Ga 4.44229681738 6.00235592662 6.81706844579
In 9.84988828238 5.98963759162 6.787765555789999
Ga 0.982079539075 6.066991082355 -0.02875201727
In 6.389671004075001 6.054272747355 -0.05805490727
In 4.473804775925 3.163061342645 4.88771853227
Al 9.881396240925 3.150343007645 4.85841564227
In 1.766060407105 1.472239278785 4.90894330735
In 7.173651872104999 1.459520943785 4.87964041735
In 3.743489647895 7.795732586214998 9.79801125765
In 9.151081112895 7.783014251214999 9.76870836765
In 0.9627312397800002 0.3124591714799999 9.83214543783
Al 6.37032270478 0.2997408364799999 9.80284254783
Ga 4.54671148374 8.955436854639999 4.85511315107
Ga 9.954302948740002 8.942718519639998 4.82581026107
In 1.83347336004 4.90331916454 4.88548342887
In 7.241064825040001 4.89060082954 4.85618053887
Ga 3.6759693634800006 4.36457686158 9.80177516003
In 9.08356082848 4.35185852658 9.77247227003
Al 3.749804307765 1.469268873085 7.724685350359999
In 9.157395772765 1.456550538085 7.69538246036
In 1.736884141995 7.782549310475 2.7870263053399995
Al 7.144475606995 7.769830975474998 2.75772341534
In 4.436688318215 6.060561289535 2.7790196396599995
Al 9.844279783215 6.0478429545350005 2.74971674966
Al 1.050000131545 3.191256894025 7.732692016039999
In 6.457591596545001 3.178538559025 7.70338912604
O 4.5451735569250005 6.194048145965 8.74606146206
O 9.952765021925 6.181329810965 8.71675857206
O 0.952892029715 3.065808958875 3.85342366024
O 6.360483494715001 3.053090623875 3.82412077024
O 3.653211245455 1.5651924028949995 3.84455960368
O 9.060802710455 1.5524740678949998 3.81525671368
O 1.844854341185 7.6946647019449985 8.75492551862
O 7.252445806185 7.681946366944999 8.72562262862
O 2.8729344094050004 0.100188501245 6.17867894462
O 8.280525874404999 0.087470166245 6.14937605462
O 2.596795666515 9.139647139274999 1.22106848728
O 8.004387131515001 9.126928804274998 1.19176559728
O 5.2902476886550005 4.687411050495 1.22363630912
O 10.697839153655002 4.674692715495 1.19433341912
O 0.179482387265 4.552424590025 6.17611112278
O 5.587073852265 4.539706255024999 6.14680823278
O 0.105354829975 7.632489207294999 1.16162274996
O 5.512946294974999 7.619770872294999 1.13231985996
O 5.3635165941050005 1.6067397221849995 6.08055687314
O 10.771108059105 1.5940213871849995 6.05125398314
O 2.663025698525 3.033565789845 6.089706726659999
O 8.070617163525004 3.020847454845 6.06040383666
O 2.805845725555 6.205663139635 1.15247289644
O 8.213437190555 6.192944804635 1.12317000644
O 5.308336729400001 7.713712599499998 6.22470390912
O 10.7159281944 7.7009942644999985 6.19540101912
O 0.16235932984 1.52680559094 1.35230730768
O 5.56995079484 1.51408725594 1.32300441768
O 2.8698032589400007 3.0884943002400003 1.33158267728
O 8.27739472394 3.07577596524 1.30227978728
O 2.6008928003 6.152023890200001 6.24542853952
O 8.0084842653 6.1393055552 6.21612564952
O 2.002263246305 1.596294792905 8.51170612261
O 7.409854711305002 1.583576457905 8.48240323261
O 3.492904390375001 7.661514662174999 3.55598764499
O 8.900495855374999 7.648796327174998 3.52668475499
O 0.7856750610750001 6.192064063275001 3.57635502919
O 6.193266526075 6.179345728275 3.54705213919
O 4.709492575605001 3.065745391805 8.49133873841
O 10.117084040604999 3.053027056805 8.46203584841
O 4.56906709072 0.03271877898 8.83865630434
O 9.97665855572 0.02000044398 8.80935341434
O 0.9297498162800002 9.22766919802 3.89870065066
O 6.33734128128 9.21495086302 3.86939776066
O 3.62285847874 4.6278521326 3.90184006642
O 9.03044994374 4.6151337976 3.87253717642
O 1.8759584282600004 4.6325358444 8.835516888579999
O 7.28354989326 4.6198175094 8.80621399858
