80   
   
Ga 7.0013004425 2.331411895 6.9645366075
Al 2.3329673125 6.974418955 6.990785602500001
Ga 6.9732438675 6.99790485 2.3190217325
Ga 6.9889335525 6.987315300000001 6.974718832500001
Ga 2.3172776275 6.985008505 2.3350885025
Al 6.9856107575 2.342001445 2.3088395075
Ga 2.3453342025 2.31851555 6.9806033775000005
Ga 2.3296445175 2.3291051 2.3249062775
Ga 6.988113103519999 4.348056940960001 4.6410867787
Ga 2.30409028852 9.00165355096 0.0116386737
Ga 6.97074152148 4.991849354040001 -0.0132255387
Ga 4.6520386914200005 6.9868819919 4.3383162647
Ga 0.02412902642 2.3074926919 8.999897909699998
Ga -0.00179375142 6.9725454681 4.987557840300001
Ga 4.35052817318 4.65203847354 6.97875364536
Al 9.003171618179998 0.01962096354 2.29680755036
Ga 4.99610647182 -0.00211102854 6.9663863396400005
Ga 2.33046496648 4.968363459040001 4.6585383313
Ga 6.98310841148 0.33594594904 -0.0234077637
Ga 2.31645717852 4.34575014596 0.0014564487
Al 4.6665393785800005 2.3295384081000003 4.9613088453000005
Ga -0.01748343642 6.9831350181000005 0.3318607403
Al 0.00843934142 2.3180822419 4.3442008097
Ga 4.96804989682 4.66438192646 2.32087146464
Ga 0.34014023182 -0.01500737354 6.982453109640001
Ga 4.34720537818 0.00672461854 2.31287432036
Ga 2.34283185648 0.31246005404 4.6483561063000005
Al 4.6508496935800006 2.3401279581 0.3056117453
Ga 0.31208365682 4.65148558146 2.3369382346400003
Al 6.975746213519999 9.003960345959998 4.6512690037
Ga 4.66772837642 6.9762924419 8.9940133647
Ga 9.00649441318 4.66493481854 6.96268687536
O 5.784312096339999 3.643014440910001 6.09631430035
O 3.5429807327 8.288745929510004 7.86475068455
O 8.1843328921 5.69028397489 1.43670193005
O 5.78481945386 5.66900665469 7.85129586005
O 6.10556209695 5.78195919874 3.632301488960001
O 7.87783119539 3.54138504006 8.277070015440001
O 1.45000577681 8.18551558054 5.68354695156
O 7.863046105849999 5.78219118066 5.65614431904
O 3.6441954494 6.10549916715 5.77385926906
O 8.287980689959998 7.87409817643 3.52688640766
O 5.69472225624 1.44971200257 8.17763442434
O 5.669546779399999 7.8617416538499985 5.770682673940001
O 3.53426597366 5.67340595909 3.20331080965
O 5.7755973373 1.0276744704899998 1.43487442545
O 1.1342451779 3.62613642511 7.86292317995
O 3.53375861614 3.6474137453100006 1.44832924995
O 3.21301597305 3.53446120126 5.66732362104
O 1.4407468746099998 5.77503535994 1.0225550945600002
O 7.86857229319 1.13090481946 3.61607815844
O 1.45553196415 3.53422921934 3.64348079096
O 5.674382620599999 3.21092123285 3.52576584094
O 1.03059738004 1.44232222357 5.77273870234
O 3.62385581376 7.86670839743 1.12199068566
O 3.6490312906 1.45467874615 3.5289424360600004
O 1.10028928134 8.29661105091 1.4668661953500002
O 8.1956241777 3.65632841951 3.18280458955
O 3.5564232271 1.0108946748899998 6.098283575050001
O 1.12553041886 1.01079645469 3.20148330505
O 1.47765243195 1.10256989874 8.293883133960001
O 3.19380838039 8.194981650059999 3.64762191044
O 6.10264922181 3.5530980705400004 1.00160085656
O 3.20375707085 1.12398098066 1.00633176404
O 8.296838894399999 1.47308165715 1.09191317406
O 3.66007102496 3.19470887643 8.188468052660001
O 1.01069944124 6.10330861257 3.54818631934
O 1.0102577444 3.20353145385 1.12087011894
O 8.21828878866 1.01980934909 7.83275891465
O 1.1229538923 5.66009198049 6.116820520450001
O 5.762154842899999 8.30552572511 3.20134153495
O 8.19304765114 8.305623945310002 6.098141804950001
O 7.840925638049998 8.213850501259998 1.0057419760400002
O 6.12476968961 1.12143874994 5.65200319956
O 3.2159288481899995 5.76332232946 8.298024253440001
O 6.11482099915 8.192439419339998 8.29329334596
O 1.0217391756 7.84333874285 8.20771193594
O 5.65850704504 6.12171152357 1.11115705734
O 8.30787862876 3.21311178743 5.75143879066
O 8.308320325599999 6.112888946150001 8.17875499106
