40   
   
Ga -0.066166394355611 3.543257533721252 13.75062618685332
Al 1.4894553831002628 2.6120272669397133 2.387259761231422
In 2.9893020581002627 0.0132674019397136 2.4097264262314217
Al -1.5115002168997371 2.6124122119397133 2.372437816231422
Al 3.001376380005349 1.7319932993390343 0.0047848169152574
Al 2.9751559112553485 1.7627110793390344 5.393319791915258
In -0.0203936981497375 0.0238916069397136 4.191082806231424
In -1.5343865199946511 4.372095149339033 7.152209506915257
In -0.0345398449946513 1.7733352843390344 7.174676171915258
Al 1.4665690800053488 4.371710204339035 7.167031451915258
Al -0.048686081855611 3.522779013721252 10.15826953685332
In 2.9576755987553485 1.7831895993390343 8.98567644191526
Al 4.4433760368943895 0.9338734637212516 11.99173647185332
Al 2.9435293618943894 3.532633328721252 11.96926980685332
Al 1.4424204368943887 0.9342584087212517 11.97691452685332
Ga -0.0466141668997375 0.0546093869397136 9.579617781231423
O 4.435689801755349 0.9072296569390346 1.2381184331152577
O 2.9958369937553493 3.4020391273390347 1.2165504347152576
O 1.5547724257553484 0.9075992041390346 1.2238893659152574
O -0.0637448731497375 0.0746783365397136 13.100127298231422
O -0.005334906855611 3.471992284121252 1.2492250448533206
O 1.4971417082553486 2.6386710217390346 13.140877800715261
O 2.936994516255349 0.1438615513390346 13.162445799115261
O 4.378059084255349 2.6383014745390354 13.155106867915258
O 1.4118478086443893 2.6672975913212515 6.00306817805332
O -0.0280049993556109 5.162107061721251 5.981500179653321
O -1.469069567355611 2.667667138521252 5.988839110853321
O 2.9842456737553484 1.7520622489390345 3.5252943339152574
O -0.0294834606497375 0.0345404373397136 6.059108264231424
O -1.456779034855611 4.316824876121252 3.5364009456533205
O -0.0169262268556109 1.822015405721252 3.5579689440533206
O 1.4241383411443893 4.316455328921252 3.5506300128533206
O -1.611994095149737 4.427365474539712 10.768018067431422
O -0.0521535531497374 1.7246552149397134 10.791383399031423
O 1.5089997288502637 4.426965131739713 10.783432890231422
O -0.039596319355611 3.5121301833212515 8.290244078853318
O 2.9485858362553485 1.7938384297390344 10.853701899915258
O 4.520983611350262 0.8786031393397136 8.375928055031423
O 2.9611430693502614 3.5813133989397135 8.352562723431424
O 1.3999897873502627 0.8790034821397136 8.360513232231423
