40   
   
Al 0.90142687743 5.557741432940001 -0.00609566901
Ga 4.06035829257 2.8775687870600004 4.52828147401
Al 1.5956188614900002 1.3319098122600002 4.53590664757
Al 3.3661663085100004 7.103400407740001 -0.01372084257
Ga 3.3924801560200004 1.3180989031900003 7.13767308224
Al 1.58305044274 7.12021541469 2.5976136187
Al 4.0358860969200006 5.538803312990002 2.59209165094
Al 0.93964450184 2.8995110048900004 7.14319505
Al 1.57837306681 7.19003009661 6.321251116609999
Al 3.39284711875 1.24734216967 1.77926526853
Al 0.94052622249 2.96397896657 1.78469628685
Al 4.030693963070001 5.47339329971 6.31582009829
Al 0.8510513886000002 0.25560788316 9.07059409281
Al 4.13463262792 8.184925489599998 4.51548490757
Al 1.6616570701200002 4.475671391600001 4.52456527217
Al 3.3240269464000005 3.96486198116 9.06151372821
O 4.11963084182 5.643129507550001 8.09556594958
O 0.8609764658200001 2.79629433777 3.56511690108
O 3.3145842568800004 1.4177192788700002 3.55945850916
O 1.6660230507600002 7.02170456645 8.1012243415
O 2.59711275154 0.06945956703 5.70565467118
O 2.3708506773800004 8.367200926930002 1.1597019198
O 4.8141633100400005 4.284131964030001 1.15586251668
O 0.15380011888 4.1525285299300005 5.7094940743
O 4.822087475030001 7.0420555914300005 5.77681606816
O 0.14630699521 1.3946991076900002 1.2520175544
O 2.6105960131100003 2.8220364741900004 1.2444719616000002
O 2.35779845713 5.614718224930002 5.78436166096
O 0.10326869698 6.98977695057 1.09403060768
O 4.864311584100001 1.44679980547 5.62601306634
O 2.41044641408 2.7577625167700006 5.63171693298
O 2.557133867000001 5.67881423927 1.08832674104
O 1.80147501397 1.4344898369800003 7.85934507055
O 3.1778391697100004 7.0046513928600005 3.31090668537
O 0.71387187551 5.661829460860002 3.31839543477
O 4.26544230817 2.7773117689800007 7.851856321149999
O 4.13273080185 -0.00259683199 8.1628453803
O 0.8482117601500001 8.442093947990001 3.6249862727
O 3.2910096348900004 4.22380028989 3.62123781902
O 1.68993292711 4.215696826110001 8.16659383398
