80   
   
Al -0.0836998525 -0.0448843225 5.8594805325
Al -0.2510995575 -0.1346529675 17.5784415975
Al 4.335936107500001 2.8624697825 5.9442947725
Ga 4.168536402500001 2.7727011375 17.6632558375
Al 2.9656341125 0.1328792675 5.9044113575
Al 2.7982344075000003 0.0431106225 17.6233724225
Ga 1.2866021425 2.6847061925 5.8993639475
Al 1.1192024375000005 2.5949375475 17.6183250125
Ga 0.0 0.0 0.0
Al -0.167399705 -0.089768645 11.718961065
Al 4.419635960000001 2.907354105 0.08481424
Al 4.252236255000001 2.81758546 11.803775305
Al 3.049333965 0.17776359 0.044930825
Ga 2.8819342600000004 0.087994945 11.76389189
Al 1.3703019950000002 2.729590515 0.039883415
Al 1.2029022900000002 2.63982187 11.75884448
Al -0.1447496269175001 1.7378542715019998 2.9413511067165
Al -0.3121493319175001 1.648085626502 14.6603121717165
Al -1.8237815969175004 4.289681196502 2.9363036967165
Al -1.9911813019175004 4.199912551502 14.655264761716499
Al 2.9045843380825 1.915617861502 2.9862819317165
Al 2.7371846330825 1.825849216502 14.7052429967165
Al 1.2255523680824998 4.467444786502 2.9812345217165
Al 1.0581526630824998 4.377676141502 14.700195586716498
Al 1.3476519169175 0.901967598498 8.8174933732835
Al 1.1802522119174998 0.8121989534979999 20.536454438283496
Al -0.3313800530825 3.4537945234979994 8.8124459632835
Al -0.4987797580825 3.3640258784979995 20.531407028283496
Al 4.396985881917501 1.079731188498 8.8624241982835
Al 4.2295861769175005 0.989962543498 20.5813852632835
Al 2.7179539119175007 3.631558113498 8.8573767882835
Al 2.550554206917501 3.541789468498 20.5763378532835
O -0.1721864385670001 1.7231411905865 4.86208882527
O -0.3395861435670001 1.6333725455864998 16.58104989027
O -1.8512184085670005 4.2749681155865 4.85704141527
O -2.0186181135670003 4.1851994705865 16.576002480269995
O 2.877147526433 1.9009047805865 4.90701965027
O 2.709747821433 1.8111361355865 16.62598071527
O 1.198115556433 4.4527317055864994 4.90197224027
O 1.030715851433 4.3629630605865 16.62093330527
O 1.3750887285669997 0.9166806794134998 6.89675565473
O 1.2076890235669997 0.8269120344134998 18.61571671973
O -0.303943241433 3.4685076044134995 6.891708244729999
O -0.471342946433 3.3787389594135 18.61066930973
O 4.424422693567001 1.0944442694135 6.94168647973
O 4.257022988567001 1.0046756244135 18.66064754473
O 2.745390723567001 3.6462711944135 6.93663906973
O 2.5779910185670007 3.5565025494135 18.65560013473
O 1.3202151052679998 0.8872545175824998 10.738231091837
O 1.1528154002679998 0.7974858725824998 22.457192156837
O -0.358816864732 3.4390814425825 10.733183681837
O -0.526216569732 3.3493127975824994 22.452144746837
O 4.369549070268 1.0650181075824998 10.783161916837
O 4.202149365268001 0.9752494625825 22.502122981836997
O 2.6905171002680013 3.6168450325825 10.778114506837
O 2.5231173952680006 3.5270763875824995 22.497075571836998
O -0.1173128152680001 1.7525673524174998 1.020613388163
O -0.2847125202680001 1.6627987074175 12.739574453163
O -1.7963447852680003 4.3043942774175 1.015565978163
O -1.9637444902680004 4.2146256324175 12.734527043163
O 2.932021149732 1.9303309424175 1.065544213163
O 2.764621444732 1.8405622974175 12.784505278163
O 1.252989179732 4.4821578674175 1.060496803163
O 1.0855894747319998 4.3923892224175 12.779457868163002
O -0.04184992625 -0.02244216125 2.92974026625
O -0.20924963125 -0.11221080625 14.64870133125
O 4.3777860337500005 2.88491194375 3.01455450625
O 4.210386328750001 2.79514329875 14.73351557125
O 3.0074840387500004 0.15532142875 2.97467109125
O 2.84008433375 0.06555278375 14.69363215625
O 1.32845206875 2.70714835375 2.96962368125
O 1.16105236375 2.61737970875 14.68858474625
O -0.12554977875 -0.06732648375 8.789220798749998
O -0.29294948375 -0.15709512875 20.50818186375
O 4.294086181250001 2.84002762125 8.87403503875
O 4.126686476250001 2.75025897625 20.59299610375
O 2.92378418625 0.11043710625 8.834151623749998
O 2.75638448125 0.02066846125 20.55311268875
O 1.2447522162500002 2.66226403125 8.82910421375
O 1.0773525112500002 2.57249538625 20.54806527875
