80   
   
Al 6.9354420525 2.312100465 6.906501055
In 2.3092016775 6.914877295 6.927707784999999
Al 6.9111422275 6.93483238 2.300164485
Al 6.9239082675 6.92649006 6.914731425
Al 2.2964356375 6.923219615 2.313140845
Al 6.9226760125 2.320442785 2.291934115
In 2.3207354625 2.3004877 6.919477415
In 2.3079694225 2.30883002 2.304910475
Al 6.924076437379999 4.30968793004 4.60277310484
In 2.28507002238 8.920807080039998 0.00941289484
Al 6.909741802619999 4.94558723496 -0.01067450484
Al 4.60930386178 6.92542211526 4.30014558308
Al 0.01889709678 2.29107743526 8.919458513079999
Al -0.00366654678 6.91267479474 4.94070304692
Al 4.30852181688 4.61269921198 6.91798681248
Al 8.921996151879998 0.01826470198 2.28221314248
Al 4.94765569812 -0.00011104698 6.907991657519999
Al 2.30780125262 4.92563214996 4.61686879516
Al 6.92127558762 0.33119763996 -0.01890487484
Al 2.29660380738 4.30641748504 0.00118252484
Al 4.62257382822 2.30989796474 4.91949631692
Al -0.01643258678 6.92101711474 0.32613610692
Al 0.00613105678 2.29941975526 4.30489157308
Al 4.92335587312 4.62262086802 2.30165508752
In 0.33294910812 -0.01172381198 6.920968017519999
Al 4.30728956188 0.00665193698 2.29518950248
In 2.31933503762 0.31124255496 4.60863842516
Al 4.60980778822 2.31824028474 0.30492937692
Al 0.30864928312 4.61100810302 2.31463144752
Al 6.912542652379999 8.924077525039996 4.61100347484
Al 4.62206990178 6.91707979526 8.914712523079999
Al 8.92322840688 4.62431197698 6.905010452479999
O 5.729965796209999 3.61190736805 6.04465728822
O 3.5081728790499995 8.217586123529998 7.79419348046
O 8.11181845275 5.638162189269999 1.42693108234
O 5.72973709699 5.62064451915 7.783322898979998
O 6.050176195960001 5.73055535124 3.60177202156
O 7.8036081306 3.51167242528 8.207509272599998
O 1.4350380312 8.11478792412 5.6309793598
O 7.79087186724 5.731284499359999 5.60884409604
O 3.609398117060001 6.05281585407 5.72271373752
O 8.2136403047 7.80344342039 3.49783986544
O 5.6395823161 1.4391514182099998 8.108400483359999
O 5.61707348714 7.792889507329998 5.720150663679999
O 3.50191189379 5.62341271195 3.17498461178
O 5.72370481095 1.01773395647 1.42544841954
O 1.12005923725 3.59715789073 7.79271081766
O 3.50214059301 3.61467556085 1.4363190010199998
O 3.18170149404 3.50476472876 5.61786987844
O 1.4282695594 5.723647654719999 1.0121326274
O 7.796839658799998 1.12053215588 3.5886625402
O 1.4410058227600002 3.50403558064 3.61079780396
O 5.62247957294 3.18250422593 3.49692816248
O 1.0182373853 1.43187665961 5.72180203456
O 3.5922953739000003 7.796168661789999 1.1112414166399998
O 3.61480420286 1.44243057267 3.49949123632
O 1.09095938121 8.223026518049998 1.45129707822
O 8.12164721405 3.62315161353 3.1584198104599994
O 3.52141168775 1.00381750927 6.04624401234
O 1.11379825199 1.00298447915 3.17350194898
O 1.45976943096 1.09621067124 8.22108495156
O 3.1646017156 8.122791575279999 3.6141490626
O 6.0485123662 3.52035341412 0.9952056898
O 3.17493302224 1.11362445936 0.99902314604
O 8.22287245206 1.45838134407 1.0869400675199998
O 3.6232335397 3.1690987403899995 8.11715279544
O 1.0005759011 6.050270568209999 3.51504027336
O 1.0011346421399998 3.1752294673299994 1.11032971368
O 8.140918308789999 1.01229356195 7.768344821779999
O 1.11023047595 5.612168466469999 6.061222089539999
O 5.71046600225 8.23150257073 3.1733978876599997
O 8.118079438009998 8.23233560085 6.04613995102
O 7.772108259039999 8.139109408759996 0.99855694844
O 6.067275974400001 1.1125285047199998 5.605492837399999
O 3.1833653238 5.71496666588 8.224436210199999
O 6.056944667760001 8.12169562064 8.22061875396
O 1.00900523794 7.776938735929998 8.132701832479999
O 5.6086441503 6.06622133961 1.1024891045599998
O 8.231301788899998 3.1850495117899995 5.70460162664
O 8.230743047859999 6.06009061267 8.109312186319999
