80   
   
Ga 10.825078459635002 5.67061e-06 1.191187414755
Al 10.825069679635002 3.10561131061 1.191198544755
Ga 23.074255524635003 1.286061e-05 1.177361859755
Ga 23.074246744635 3.10561850061 1.1773729897549998
Al -0.0852842846350001 -2.70061e-06 4.666961880245
Ga -0.0852930646350001 3.10560293939 4.666973010245
Al 12.163892780365002 4.48939e-06 4.653136325245001
Ga 12.163884000365002 3.10561012939 4.6531474552450005
Ga 4.700485537135 1.5528048956099998 1.198105757255
Ga 4.700476757135 4.65841053561 1.198116887255
Ga 16.949662602134996 1.5528120856099998 1.184280202255
Al 16.949653822134994 4.65841772561 1.184291332255
Ga 6.039299857864999 1.55280371439 4.660054667745
Al 6.039291077864999 4.65840935439 4.660065797745
Al 18.288476922864998 1.5528109043899998 4.646229112745
Al 18.288468142865 4.65841654439 4.646240242745
Ga 9.266116859124995 1.55280597187 4.016553020345
In 9.266108079124995 4.65841161187 4.016564150345
In 21.515293924124997 1.55281316187 4.002727465345
Ga 21.515285144125 4.65841880187 4.002738595345
Ga 1.473668535875 1.55280263813 1.841607404655
In 1.4736597558750002 4.65840827813 1.841618534655
Al 13.722845600875 1.55280982813 1.827781849655
In 13.722836820875 4.65841546813 1.827792979655
In 3.1415327166250004 -4.4313e-07 4.023460232845
Al 3.1415239366250005 3.10560519687 4.023471362845
Al 15.390709781624999 6.74687e-06 4.009634677845001
Ga 15.390701001624995 3.10561238687 4.009645807845001
In 7.598261458375 3.41313e-06 1.834689062155
Al 7.598252678375 3.10560905313 1.834700192155
In 19.847438523375 1.060313e-05 1.820863507155
In 19.847429743375002 3.10561624313 1.820874637155
O 9.470469109824998 4.10199e-06 2.554619275465
O 9.470460329824999 3.10560974199 2.554630405465
O 21.719646174824998 1.129199e-05 2.540793720465
O 21.719637394825 3.10561693199 2.540804850465
O 1.269325065175 -1.13199e-06 3.303530019535
O 1.2693162851750002 3.10560450801 3.303541149535
O 13.518502130175 6.05801e-06 3.289704464535
O 13.518493350175 3.10561169801 3.289715594535
O 3.345876187325 1.55280332699 2.561537617965
O 3.345867407325 4.65840896699 2.561548747965
O 15.595053252324998 1.55281051699 2.547712062965
O 15.595044472324998 4.65841615699 2.547723192965
O 7.393909207674999 1.55280528301 3.296622807035
O 7.393900427675 4.658410923009999 3.296633937035
O 19.643086272675003 1.55281247301 3.2827972520349995
O 19.643077492675 4.658418113009999 3.282808382035
O 8.884712077175001 2.24785e-06 5.214513278075
O 8.884703297175001 3.10560788785 5.214524408075
O 21.133889142175 9.43785e-06 5.200687723075
O 21.133880362175002 3.10561507785 5.200698853075
O 1.855082097825 7.2215e-07 0.643636016925
O 1.855073317825 3.10560636215 0.643647146925
O 14.104259162824999 7.91215e-06 0.629810461925
O 14.104250382824999 3.1056135521499995 0.629821591925
O 2.7601191546750004 1.55280147285 5.221431620575
O 2.7601103746750004 4.65840711285 5.221442750575
O 15.009296219675 1.55280866285 5.207606065575
O 15.009287439675001 4.65841430285 5.207617195575
O 7.979666240325 1.5528071371499998 0.636728804425
O 7.979657460324998 4.65841277715 0.636739934425
O 20.228843305324997 1.55281432715 0.622903249425
O 20.228834525325 4.65841996715 0.622914379425
O -1.07247916901 1.5527997132999998 4.36282757633
O -1.07248794901 4.658405353299999 4.36283870633
O 11.17669789599 1.5528069032999998 4.34900202133
O 11.17668911599 4.6584125433 4.34901315133
O 11.812264564009999 1.5528088967 1.49533284867
O 11.812255784009999 4.6584145367 1.49534397867
O 24.06144162901 1.5528160866999998 1.48150729367
O 24.06143284901 4.6584217267 1.48151842367
O 5.05211375349 4.883e-07 4.35590923383
O 5.05210497349 3.1056061283 4.35592036383
O 17.30129081849 7.6783e-06 4.34208367883
O 17.301282038489997 3.1056133183 4.34209480883
O 5.68768042151 2.4817e-06 1.50224006117
O 5.68767164151 3.1056081217 1.50225119117
O 17.936857486509997 9.6717e-06 1.48841450617
O 17.936848706509995 3.1056153117 1.48842563617
