80   
   
Ga -0.0267167375 -0.010339265 6.04476836
Ga -0.0801502125 -0.031017795 18.13430508
Ga 4.8621805875 2.65900074 6.07028509
Ga 4.8087471125 2.63832221 18.15982181
Ga 3.1880900175 -0.08700286 6.058399065
In 3.1346565425 -0.10768139 18.147935785
Ga 1.6473738325000002 2.7356643350000005 6.056654385
Ga 1.5939403575000002 2.7149858050000004 18.146191105
Ga 0.0 0.0 0.0
Ga -0.053433475 -0.02067853 12.089536720000002
Ga 4.888897325 2.669340005 0.02551673
Ga 4.83546385 2.648661475 12.11505345
Ga 3.214806755 -0.076663595 0.013630705
In 3.1613732800000003 -0.097342125 12.103167425
Ga 1.6740905700000002 2.7460036000000003 0.011886025
Ga 1.620657095 2.72532507 12.101422745
Ga 0.0310953137705002 1.8508683434735005 3.0257642902885
Ga -0.0223381612294998 1.8301898134735 15.1153010102885
Ga -1.5096208712295005 4.6735355384735 3.0240196102885
Ga -1.5630543462295 4.6528570084735 15.1135563302885
Ga 3.2459020687705 1.7742047484735002 3.0393949952885
Ga 3.1924685937705 1.7535262184735 15.128931715288498
Ga 1.7051858837704996 4.5968719434735 3.0376503152885
Ga 1.6517524087704998 4.576193413473501 15.127187035288499
Ga 1.5895617812295 0.8744567265265001 9.075658454711501
Ga 1.5361283062295 0.8537781965265 21.165195174711496
Ga 0.0488455962295002 3.6971239215265 9.073913774711501
Ga -0.0045878787704998 3.6764453915265 21.1634504947115
Ga 4.8043685362295 0.7977931315265 9.0892891597115
Ga 4.7509350612295 0.7771146015264999 21.178825879711493
Ga 3.2636523512295 3.6204603265265 9.0875444797115
Ga 3.2102188762295003 3.5997817965265004 21.177081199711495
O 0.0223375672180002 1.8474791324065 5.0072393586965
O -0.0310959077819998 1.8268006024065 17.0967760786965
O -1.5183786177820002 4.6701463274065 5.0054946786965
O -1.5718120927820003 4.6494677974065 17.0950313986965
O 3.237144322218 1.7708155374065 5.0208700636965
O 3.183710847218 1.7501370074065 17.1104067836965
O 1.6964281372179997 4.593482732406501 5.0191253836965
O 1.6429946622179996 4.572804202406501 17.1086621036965
O 1.598319527782 0.8778459375935 7.0941833863035
O 1.544886052782 0.8571674075935001 19.1837201063035
O 0.0576033427820002 3.7005131325935 7.0924387063035
O 0.0041698677820002 3.6798346025935 19.181975426303502
O 4.813126282782 0.8011823425935 7.107814091303499
O 4.759692807782 0.7805038125935 19.1973508113035
O 3.2724100977820005 3.6238495375935 7.1060694113035
O 3.2189766227820003 3.6031710075935 19.195606131303496
O 1.580804034677 0.8710675154595 11.0571335231195
O 1.527370559677 0.8503889854595 23.146670243119495
O 0.0400878496770002 3.6937347104595 11.0553888431195
O -0.0133456253229998 3.6730561804595 23.1449255631195
O 4.795610789677 0.7944039204594999 11.0707642281195
O 4.742177314677 0.7737253904595 23.160300948119495
O 3.254894604677 3.6170711154595 11.0690195481195
O 3.2014611296770004 3.5963925854595 23.1585562681195
O 0.0398530603230002 1.8542575545405 1.0442892218805
O -0.0135804146769998 1.8335790245405 13.133825941880499
O -1.500863124677 4.6769247495405 1.0425445418805
O -1.5542965996770002 4.6562462195405 13.132081261880499
O 3.254659815323 1.7775939595405 1.0579199268805
O 3.201226340323 1.7569154295405 13.1474566468805
O 1.7139436303229998 4.600261154540501 1.0561752468805
O 1.6605101553229995 4.5795826245405005 13.1457119668805
O -0.01335836875 -0.0051696325 3.02238418
O -0.06679184375 -0.0258481625 15.1119209
O 4.875538956250001 2.6641703725 3.04790091
O 4.82210548125 2.6434918425 15.13743763
O 3.20144838625 -0.0818332275 3.036014885
O 3.14801491125 -0.1025117575 15.125551605
O 1.66073220125 2.7408339675000004 3.034270205
O 1.6072987262500005 2.7201554375000003 15.123806925
O -0.04007510625 -0.0155088975 9.06715254
O -0.09350858125 -0.0361874275 21.15668926
O 4.8488222187500005 2.6538311075 9.09266927
O 4.79538874375 2.6331525775 21.18220599
O 3.17473164875 -0.0921724925 9.080783245
O 3.12129817375 -0.1128510225 21.170319965
O 1.6340154637500002 2.7304947025 9.079038565
O 1.58058198875 2.7098161725000005 21.168575285
