80   
   
In -0.02533909 -0.0493402425 6.1163729925
Ga -0.07601727 -0.1480207275 18.3491189775
Ga 4.912342015 2.8790071875 6.1591305075
Ga 4.861663835 2.7803267025 18.3918764925
In 3.288622165 -0.0104405575 6.1301320625
In 3.237943985 -0.1091210425 18.3628780475
In 1.5983807600000002 2.8401075025 6.1453714375
Ga 1.5477025800000002 2.7414270175 18.3781174225
Al 0.0 0.0 0.0
Al -0.05067818 -0.098680485 12.232745985
Al 4.937681105 2.92834743 0.042757515
Al 4.887002925 2.829666945 12.2755035
In 3.313961255 0.038899685 0.01375907
Ga 3.2632830750000004 -0.0597808 12.246505055
Ga 1.62371985 2.889447745 0.028998445
Ga 1.57304167 2.79076726 12.261744429999998
In -0.0348411792814999 1.8884704805565 3.072930961656
Al -0.0855193592814999 1.7897899955565 15.305676946656
In -1.7250825842815003 4.739018540556501 3.088170336656
Al -1.7757607642815003 4.640338055556501 15.320916321656
Al 3.2791200757185 1.9273701655565 3.086690031656
In 3.2284418957185004 1.8286896805565 15.319436016655997
In 1.5888786707184996 4.7779182255565 3.101929406656
Al 1.5382004907184996 4.6792377405565 15.334675391656
In 1.6078828492815 0.9022967794434998 9.188813468344
In 1.5572046692815 0.8036162944434999 21.421559453344
In -0.0823585557185001 3.7528448394435 9.204052843344002
In -0.1330367357185001 3.6541643544435 21.436798828344
Al 4.921844104281501 0.9411964644434998 9.202572538343999
Al 4.871165924281501 0.8425159794434999 21.435318523344
In 3.231602699281501 3.7917445244435 9.217811913344
In 3.180924519281501 3.6930640394435 21.450557898344
O -0.0431473329834999 1.872296749065 5.0778780285975
O -0.0938255129834999 1.773616264065 17.310624013597497
O -1.7333887379835002 4.722844809065 5.0931174035975
O -1.7840669179835005 4.624164324065 17.325863388597497
O 3.2708139220165 1.911196434065 5.0916370985975
O 3.2201357420165 1.812515949065 17.3243830835975
O 1.5805725170164997 4.761744494065 5.1068764735975
O 1.5298943370164997 4.663064009065 17.3396224585975
O 1.6161890029835 0.918470510935 7.183866401402498
O 1.5655108229835 0.8197900259349998 19.416612386402495
O -0.0740524020165001 3.769018570935 7.199105776402499
O -0.1247305820165001 3.670338085935 19.431851761402495
O 4.930150257983501 0.9573701959349998 7.197625471402499
O 4.879472077983501 0.8586897109349998 19.4303714564025
O 3.239908852983501 3.807918255935 7.212864846402499
O 3.1892306729835007 3.709237770935 19.4456108314025
O 1.5995766955795 0.8861230479519999 11.1937605352855
O 1.5488985155795 0.7874425629519999 23.426506520285496
O -0.0906647094205001 3.736671107952 11.2089999102855
O -0.1413428894205001 3.637990622952 23.441745895285496
O 4.9135379505795 0.925022732952 11.207519605285501
O 4.862859770579501 0.8263422479519998 23.4402655902855
O 3.2232965455795006 3.775570792952 11.222758980285501
O 3.172618365579501 3.676890307952 23.4555049652855
O -0.0265350255794999 1.904644212048 1.0679838947145
O -0.0772132055794999 1.805963727048 13.300729879714499
O -1.7167764305795 4.755192272048 1.0832232697145
O -1.7674546105795002 4.656511787048 13.3159692547145
O 3.2874262294205003 1.943543897048 1.0817429647144998
O 3.2367480494205 1.844863412048 13.3144889497145
O 1.5971848244204998 4.794091957048 1.0969823397145
O 1.5465066444204998 4.695411472048 13.3297283247145
O -0.012669545 -0.02467012125 3.05818649625
O -0.063347725 -0.12335060625 15.29093248125
O 4.925011560000001 2.9036773087500003 3.10094401125
O 4.87433338 2.8049968237500003 15.33368999625
O 3.30129171 0.01422956375 3.07194556625
O 3.2506135300000003 -0.08445092125 15.304691551249997
O 1.611050305 2.86477762375 3.08718494125
O 1.560372125 2.76609713875 15.319930926249997
O -0.038008635 -0.07401036375 9.17455948875
O -0.088686815 -0.17269084875 21.40730547375
O 4.8996724700000005 2.8543370662500003 9.21731700375
O 4.84899429 2.75565658125 21.45006298875
O 3.27595262 -0.03511067875 9.18831855875
O 3.22527444 -0.13379116375 21.42106454375
O 1.585711215 2.81543738125 9.20355793375
O 1.535033035 2.71675689625 21.43630391875
