30   
   
Al -0.00143346855 0.00177004545 1.94253062195
Al -0.00637646355 0.00787365045 8.64091207695
Al -0.00845252145 0.01043716455 11.45423228805
Al -0.00350952645 0.00433355955 4.755850833049999
In 2.4598386195682607 1.4409297279090083 6.408214603984336
Al 2.4548956245682607 1.4470333329090084 13.106596058984335
In 2.4627055566682605 1.4373896370090085 2.5231533600843368
Al 2.457762561668261 1.4434932420090083 9.221534815084336
Al -0.0186542066682614 2.861695542990991 10.871447629915663
Al -0.0137112116682614 2.855591937990991 4.173066174915662
Al -0.0157872695682614 2.858155452090991 6.986386386015663
Al -0.0108442745682614 2.852051847090991 0.2880049310156627
O 1.4942772490199998 0.00862515723 3.34993340777
O 1.7079228284799994 2.991005747589999 3.34768386926
O -0.75567723 1.29640247268 3.34779298547
O 0.7361285215199997 1.30807943241 10.046917120740002
O -1.74003626 2.98428879732 10.04435691453
O 3.4356016009799992 0.02197596277 10.04928059223
O 3.95554933713826 1.4477848396890085 7.815617389804336
O 1.7152575765982612 0.1432874600490088 7.815529771294336
O 1.7055948581182607 2.735562155139009 7.813476967504336
O 3.20728659963826 2.735031904869009 1.1158381927743373
O 3.2169493181182607 0.1427572097790088 1.117890996564337
O 0.966994839098261 1.4305345252290085 1.1157505742643372
O 1.4770565109017386 2.868550654770991 12.278850415735665
O -0.7632352496382611 1.5640532751309912 12.278762797225662
O -0.7728979681182615 4.156327970220991 12.276709993435665
O 0.7287937734017385 4.15579771995099 5.579071218705662
O 0.7384564918817386 1.563523024860991 5.581124022495663
O -1.5114979871382612 2.851300340310991 5.578983600195663
