80   
   
Al 7.5620619425 2.5160158325000004 7.569314559999999
In 2.5196202475 7.5597758125 7.5703306549999985
In 7.564813022500002 7.5621376675 2.529037355
Al 7.562783662500002 7.5591125625 7.572292529999999
Al 2.5216496075 7.562800917499999 2.52707548
Al 7.5640913025 2.5190409375 2.526059385
Al 2.5188985275 2.5166790825000005 7.567352684999999
In 2.5209278875 2.5197041875000004 2.52409751
In 7.56338840554 4.696146172360001 5.04897345554
In 2.5229760705400004 9.74293125736 0.00673437554
In 7.565515919460002 5.385032432640001 0.00612328446
In 5.04235463148 7.561162447140002 4.7067426531
In -0.00355986352 2.51570386214 9.7450579831
In -0.00108477648 7.56141428286 5.3906634819
In 4.69790598278 5.0379409235 7.569689199999998
In 9.74237703778 -0.0027939515 2.52541793
In 5.383054487220001 -0.0052460085 7.566978044999998
In 2.5203231444600003 5.382670577640001 5.04741658446
In 7.56479419946 0.3419357026400001 0.00314531446
In 2.5222543505400004 4.69983452736 0.00375640554
In 5.04135691852 2.51765430286 5.3896473869
In 0.00094458352 7.56443938786 0.3474083069
In -0.00153050352 2.51872896714 4.7018028081
In 5.38580556722 5.0408758265 2.52670084
In 0.33989107222 -0.0045827585 7.56501617
In 4.69921362278 -0.0021307015 2.523456055
In 2.51960142446 0.3395738476400001 5.04443861446
In 5.04338627852 2.52067940786 0.3463922119
In 0.3426421522200001 5.0415390765 2.524738965
In 7.564110125540002 9.73924290236 5.05195142554
In 5.04032527148 7.558137342140002 9.7499978281
In 9.741069397779999 5.0372776735 7.571651074999998
O 6.25142449932 3.938910275100001 6.62151228714
O 3.830664740760001 8.98118792562 8.51981250294
O 8.87621350504 6.14038066438 1.58057568206
O 6.250976129880001 6.1365630099 8.519074627859998
O 6.615938373760001 6.25020412909 3.95009220965
O 8.5097920322 3.826243211690001 8.99265562405
O 1.5722654522 8.87195873291 6.148538135349999
O 8.51128301684 6.248635801310001 6.14968913095
O 3.9421842807700007 6.61227311806 6.25907769989
O 8.98659315529 8.50926628894 3.84139680761
O 6.13922654251 1.56731415646 8.87944779839
O 6.141274896430001 8.508188311539998 6.26105279411
O 3.8322870506800006 6.1399064749 3.4748777528599994
O 6.253046809240001 1.09762882438 1.57657753706
O 1.20749804496 3.93843608562 8.515814357939998
O 3.832735420120001 3.9422537401 1.57731541214
O 3.46777317624 3.82861262091 6.146297830349999
O 1.5739195178 6.25257353831 1.10373441595
O 8.5114460978 1.2068580170899998 3.94785190465
O 1.57242853316 3.83018094869 3.94670090905
O 6.14152726923 3.46654363194 3.83731234011
O 1.09711839471 1.5695504610600002 6.25499323239
O 3.944485007490001 8.511502593539998 1.21694224161
O 3.9424366535700006 1.5706284384600002 3.83533724589
O 1.21101216432 8.985695360099998 1.57927320714
O 8.87513579576 3.94045305062 3.4755412329399995
O 3.830299010040001 1.09492207938 6.61889101206
O 1.20912035488 1.0971546349 3.4708796078599997
O 1.57002387876 1.20474554409 8.98840753965
O 3.4693796972 8.873028296690002 3.95041654405
O 6.6167365072000015 3.83122385791 1.1042668653499998
O 3.46942724184 1.20922742631 1.1014941109499998
O 8.986655335770001 1.57153824306 1.21480642989
O 3.9406786602900006 3.46380770394 8.879712137609998
O 1.09881420751 6.61409924146 3.83720871839
O 1.09941912143 3.46877993654 1.21285777411
O 8.87269938568 1.0931213899 8.517116832859998
O 1.2085757542400002 6.13836369938 6.62084880706
O 6.25341253996 8.983894670620002 3.4774990279399995
O 8.87459119512 8.9816621151 6.62551043214
O 8.513687671239998 8.87407120591 1.10798250035
O 6.614331852800001 1.2057884533099998 6.14597349595
O 3.4669750428 6.24759289209 8.99212317465
O 6.614284308160001 8.86958932369 8.99489592905
O 1.09705621423 8.50727850694 8.881583610109999
O 6.143032889710001 6.615009046060001 1.2166779023899998
O 8.984897342490001 3.46471750854 6.25918132161
O 8.98429242857 6.610036813460001 8.883532265889999
