40   
   
Ga 1.7267731433487443 0.0016780389400261 0.5987762799115557
Ga 8.527850236651256 -0.0696702089400261 14.124690400088445
In 9.500975980848745 1.537494916440026 2.376482447411556
Al 4.302987440848745 1.5194507314400258 2.4352886374115554
Ga 5.1449809025 -0.0209860175 5.5065984575
Al 1.6914347183487444 -0.0243420960599739 4.309046044911556
In -0.07067685 -0.05204027 7.42053953
Ga 8.616196299151254 -0.0046198714400261 4.849015987588444
In 2.52320666 1.47874249 7.401917005
Al 7.7211952 1.4967866749999998 7.343110815
Ga 8.563188661651257 -0.0436500739400261 10.414420635088446
Ga 5.1096424775 -0.0470061525 9.2168682225
In 3.347530909151255 -0.0747043264400261 12.328361707588444
Ga 1.6384270808487444 -0.0633722985599739 9.874450692411555
In 5.941414419151255 1.456078433559974 12.309739182588444
Ga 11.139402959151257 1.4741226185599738 12.250932992588444
O 3.5226171427 0.0034231999 1.2215035109
O 1.6037954243487444 -0.0888720308599739 13.510515062111555
O 6.0127453123 1.4729746495 1.2036258869
O 11.2103249915 1.6127596879 1.1456821425
O 8.650827955651254 0.0208798608599739 1.2129516178884443
O 6.7320062373 -0.0714153699 13.5019631691
O 9.4296450877 1.5205987005 13.4825957431
O 4.2320654085 1.3808136621 13.5405394875
O 6.940824901851254 -0.0192408565400261 6.129325688488445
O 5.1633568835 -0.0074555473 3.5772581797
O 9.430953071451254 1.4503105930599738 6.111448064488444
O 4.232555670651255 1.5540072614599736 6.171116700088445
O 1.6730587373487444 -0.0378725662599739 6.238386322711557
O 10.291567696451255 0.0100011136599739 3.5687062866884443
O 12.989206546851255 1.602015184059974 3.549338860688444
O 7.791626867651255 1.462230145659974 3.607282605088444
O -0.0369443164512554 -0.0779932836599739 11.154760393311555
O 8.581564642651255 -0.0301196037400261 8.485080357288444
O 2.4531838531487447 1.391558165940026 11.136882769311555
O 7.650763532348746 1.531343204340026 11.078939024911556
O 5.0912664965 -0.0605366227 11.1462085003
O 3.3137984781487444 -0.0487513134599739 8.594140991511555
O 6.011437328548745 1.543262756940026 8.574773565511554
O 11.209834729348746 1.439566088540026 8.515104929911555
