80   
   
In -0.009963565 -0.0383592475 6.1635715875
In -0.029890695 -0.1150777425 18.4907147625
Ga 5.0527765 2.8147340525 6.1895509925
In 5.03284937 2.7380155575 18.5166941675
In 3.3446818 -0.0731820625 6.1688481925
Ga 3.32475467 -0.1499005575 18.4959913675
Ga 1.698131135 2.8495568675 6.1842743875
In 1.6782040050000002 2.7728383725 18.5114175625
Ga 0.0 0.0 0.0
Ga -0.01992713 -0.076718495 12.327143175
In 5.062740065 2.8530933 0.025979405
Ga 5.042812935 2.776374805 12.35312258
Ga 3.354645365 -0.034822815 0.005276605
In 3.334718235 -0.11154131 12.33241978
In 1.7080947000000002 2.887916115 0.0207028
In 1.6881675700000005 2.81119762 12.347845975
Al 0.0155308443655 1.9175117027485 3.0938275877835
Ga -0.0043962856345 1.8407932077485 15.4209707627835
In -1.6310198206345 4.8402506327485 3.1092537827835
In -1.6509469506344998 4.7635321377485 15.4363969577835
In 3.3701762093655 1.8826888877485 3.0991041927835
Ga 3.3502490793655 1.8059703927485 15.426247367783501
Ga 1.7236255443654998 4.8054278177485 3.1145303877835
Al 1.7036984143654998 4.7287093227485 15.441673562783501
In 1.6726367256345 0.8936859172514999 9.2540183872165
In 1.6527095956345002 0.8169674222515 21.5811615622165
Ga 0.0260860606345002 3.8164248472515 9.269444582216499
Ga 0.0061589306345002 3.7397063522515 21.5965877572165
In 5.0272820906345 0.8588631022514999 9.2592949922165
Ga 5.007354960634499 0.7821446072514999 21.586438167216496
Ga 3.3807314256345005 3.7816020322515 9.2747211872165
Ga 3.3608042956345003 3.7048835372515 21.601864362216496
O 0.0122647877585 1.904937541418 5.114246354166
O -0.0076623422415 1.828219046418 17.441389529166
O -1.6342858772415 4.827676471418 5.129672549166
O -1.6542130072414998 4.750957976418 17.456815724165995
O 3.3669101527584995 1.870114726418 5.119522959166
O 3.3469830227585 1.793396231418 17.446666134165998
O 1.7203594877584998 4.792853656418 5.134949154166
O 1.7004323577585 4.716135161418 17.462092329165998
O 1.6759027822415002 0.906260078582 7.233599620833998
O 1.6559756522415 0.8295415835819999 19.560742795834
O 0.0293521172415002 3.828999008582 7.249025815833998
O 0.0094249872415002 3.752280513582 19.576168990834
O 5.0305481472415 0.8714372635819999 7.238876225834
O 5.0106210172415 0.7947187685819999 19.566019400834
O 3.3839974822415004 3.794176193582 7.254302420833999
O 3.3640703522415003 3.717457698582 19.581445595834
O 1.6693706690275 0.8811117559209999 11.274437153599001
O 1.6494435390275002 0.8043932609209999 23.601580328599002
O 0.0228200040275002 3.8038506859209993 11.289863348599
O 0.0028928740275002 3.727132190921 23.617006523599002
O 5.0240160340275 0.8462889409209998 11.279713758599
O 5.004088904027499 0.7695704459209999 23.606856933599
O 3.3774653690275005 3.769027870921 11.295139953599
O 3.3575382390275004 3.692309375921 23.622283128599
O 0.0187969009725 1.930085864079 1.073408821401
O -0.0011302290275 1.853367369079 13.400551996401001
O -1.6277537640275 4.852824794079 1.088835016401
O -1.6476808940274998 4.776106299079 13.415978191401
O 3.3734422659725 1.895263049079 1.078685426401
O 3.3535151359725 1.818544554079 13.405828601401
O 1.7268916009724995 4.818001979079 1.0941116214009998
O 1.7069644709724998 4.741283484079 13.421254796401
O -0.0049817825 -0.01917962375 3.08178579375
O -0.0249089125 -0.09589811875 15.40892896875
O 5.0577582825 2.83391367625 3.10776519875
O 5.0378311525 2.75719518125 15.43490837375
O 3.3496635825000003 -0.05400243875 3.08706239875
O 3.3297364525 -0.13072093375 15.41420557375
O 1.7031129175000002 2.86873649125 3.10248859375
O 1.6831857875000005 2.79201799625 15.42963176875
O -0.0149453475 -0.05753887125 9.24535738125
O -0.0348724775 -0.13425736625 21.57250055625
O 5.0477947175 2.79555442875 9.27133678625
O 5.0278675875 2.71883593375 21.59847996125
O 3.3397000175 -0.09236168625 9.25063398625
O 3.3197728875 -0.16908018125 21.57777716125
O 1.6931493525 2.83037724375 9.26606018125
O 1.6732222225000002 2.75365874875 21.59320335625
