80   
   
In 7.109957055 2.3663470025 7.0771438725
Ga 2.369784225 7.084597537499999 7.1013246525
Ga 7.08527117 7.1061087175 2.3576690475
Ga 7.09929105 7.095879967499999 7.0869161025
Ga 2.355764345 7.094826287499999 2.3720775975
Ga 7.095937175 2.3765757525 2.3478968175
Ga 2.38045023 2.3550645725 7.0915524225
Ga 2.36643035 2.3652933225 2.3623053675
Ga 7.09833940084 4.414619618380001 4.71674194836
Ga 2.34414669084 9.14309890338 0.01167567336
Ga 7.08286894416 5.06806485162 -0.01117608336
Ga 4.7265743456600005 7.096048682499998 4.4079080502600005
Ga 0.02175340566 2.3450045375 9.14179142526
Ga -0.00102577566 7.0833751425 5.065494199740001
Ga 4.4182641759 4.724705064759999 7.0902140439000005
Ga 9.144417125899999 0.01668327976 2.3367862089
Ga 5.0721431091 -0.00329348976 7.0784822511000005
Ga 2.36738199916 5.04655367162 4.73247952164
Ga 7.09353494916 0.33853188662 -0.02094831336
Ga 2.35481269584 4.41356593838 0.00190344336
Ga 4.73914705434 2.3651246075 5.041313419740001
Ga -0.01504565566 7.093603892499999 0.33624714474
Ga 0.00773352566 2.3552332875 4.41254437026
In 5.0474572241 4.73646822524 2.3590074261
Ga 0.3426362841 -0.01457591976 7.0928908011
Ga 4.4149103009 0.00540084976 2.3511947589
Ga 2.37804800416 0.31702070662 4.72270729164
Ga 4.72512717434 2.3753533575 0.31206636474
Ga 0.3179503991 4.72518579524 2.3734159761
Ga 7.08767339584 9.14415258338 4.72651417836
Ga 4.74059422566 7.085819932499999 9.13715510526
Ga 9.1477710009 4.73598749476 7.0758054939
O 5.87464172965 3.69906487183 6.19454741802
O 3.59908392353 8.41933626043 7.9894326447
O 8.315315020469999 5.77723685817 1.4620686093
O 5.87526282635 5.757295234569999 7.977005002979999
O 6.20285065436 5.87142454226 3.69148474461
O 8.000284782959998 3.59526216274 8.41062351441
O 1.4739101744399998 8.31503951906 5.77292657019
O 7.9872578882399985 5.87120700094 5.74801884579
O 3.70186518979 6.20128646034 5.86582002786
O 8.420632054509998 7.9957830851799985 3.58504724994
O 5.78188650809 1.47135368482 8.30897413866
O 5.759919747610001 7.98450999466 5.86321225854
O 3.59107967035 5.76210841817 3.25467405198
O 5.86663747647 1.04183702957 1.4597888253
O 1.15040637953 3.68393643183 7.9871528607
O 3.59045857365 3.70387805543 1.47221646702
O 3.2628707456399995 3.58974874774 5.75773672539
O 1.46543661704 5.86591112726 1.03859795559
O 7.9918112255599985 1.14613377094 3.67629489981
O 1.4784635117599998 3.58996628906 3.70120262421
O 5.76385621021 3.25988682966 3.58340144214
O 1.04508934549 1.46539020482 5.86417422006
O 3.68383489191 7.989819605179998 1.14024733134
O 3.70580165239 1.47666329534 3.58600921146
O 1.12044901965 8.42754415683 1.48948114302
O 8.32523687353 3.71131447543 3.2360048097
O 3.61049408047 1.0261927131700002 6.195951984300001
O 1.14240212635 1.02670858957 3.25239426798
O 1.4980297143599997 1.12038039726 8.42536811961
O 3.24609207296 8.32374144774 3.70555723941
O 6.20006312444 3.60701773406 1.01949873519
O 3.25439718824 1.14062035594 1.02340811079
O 8.428018139789998 1.49326467534 1.11239219286
O 3.71581111451 3.2447389401799995 8.31893062494
O 1.0276937980899998 6.199832969819999 3.60390786366
O 1.02705904761 3.2539233496599995 1.13860152354
O 8.34527238035 1.0336291331699998 7.959740326979999
O 1.14048452647 5.74985881457 6.2132166603000005
O 5.85522731953 8.43498057683 3.2532694857
O 8.32331927365 8.43446470043 6.196827202020001
O 7.967691685639998 8.340792892739998 1.02385335039
O 6.21962932704 1.1374318422599998 5.74366423059
O 3.2656582755599994 5.85415555594 8.429722734809998
O 6.21132421176 8.32055293406 8.42581335921
O 1.0377032602099998 7.96790861466 8.336829277139998
O 5.74991028549 6.216434349819999 1.13029084506
O 8.43802760191 3.2613403201799995 5.84531360634
O 8.43866235239 6.20724994034 8.310619946460001
