80   
   
Al 7.3233496025 2.4383337925 7.316814177499999
Al 2.4394607875000003 7.3141001874999985 7.3255219425
Al 7.315795577500001 7.323164227499999 2.4418476925
In 7.319402557500002 7.318113517499999 7.3217930624999985
Al 2.4358538075 7.319150897499998 2.4455765725
Al 7.3197426225 2.4433845025 2.4368688075
Al 2.4434078325 2.4343204625 7.320543057499998
Al 2.4398008525 2.4393711725 2.4405976875
Al 7.31984098906 4.5489239887 4.87899237082
In 2.4323451940600003 9.4297410937 0.00775476582
In 7.31569721094 5.2176247413 -0.00027587082
Al 4.87738290786 7.31897565578 4.55184853234
In 0.00499516286 2.43013189078 9.43054389734
Al -0.00206831286 7.31427542922 5.21924998266
In 4.54956915464 4.87594408356 7.321421623839998
In 9.42985098964 0.00522839856 2.43276848884
Al 5.217188280360001 -0.00328982856 7.315935611159999
In 2.43936242094 5.2085607013 4.88339837918
In 7.31964425594 0.3378450163 -0.00525475582
In 2.43629223906 4.5499613687 0.00277588082
In 4.88182050214 2.4385090342199995 5.21054221766
In -0.00567529286 7.31932613922 0.33930461266
In 0.00138818286 2.43518260078 4.55059852734
In 5.209634255360001 4.881540606439999 2.44096912616
In 0.33724651036 -0.00730315856 7.319664491159998
In 4.549909219640001 0.00121506856 2.43649736884
Al 2.44330946594 0.3287809763 4.87841949418
In 4.87821352214 2.4435597442199994 0.33059684766
In 0.3296924853600001 4.87752727644 2.44469800616
In 7.31589394406 9.4287037137 4.88397125582
Al 4.880989887860001 7.31392494578 9.43179390234
In 9.42951092464 4.87995741356 7.317692743839999
O 6.052773563370001 3.81433774263 6.40175800231
O 3.70781069325 8.69029200227 8.243386208829998
O 8.58501539215 5.949059344329999 1.52204440857
O 6.05240887623 5.940022635769999 8.238788255289998
O 6.4004099248 6.05224269274 3.81739880618
O 8.240769591920001 3.70640672682 8.6935522525
O 1.51998833468 8.583512710179999 5.9513728877
O 8.236840673600001 6.051549595259999 5.94365292862
O 3.8154085963 6.3991465428600005 6.05474857176
O 8.692134926980001 8.240381390259998 3.71051797492
O 5.94888588262 1.51849026054 8.58571548748
O 5.9415791191 8.235693531339999 6.05499484084
O 3.70642984663 5.943146947369999 3.3606327476899995
O 6.051392716750001 1.06719268773 1.51900454117
O 1.1741880178500002 3.80842534567 8.240346341429998
O 3.706794533770001 3.81746205423 1.52360249471
O 3.3587934852 3.70524199726 5.94499194382
O 1.51843381808 6.051077963179999 1.0688384975
O 8.23921507532 1.17397197982 3.8110178623
O 1.5223627364 3.70593509474 3.81873782138
O 5.9437948137 3.35833814714 3.70764217824
O 1.06706848302 1.5171032997399998 6.05187277508
O 3.810317527380001 8.238994429459998 1.17667526252
O 3.8176242909 1.52179115866 3.70739590916
O 1.1652777683700002 8.695154847629999 1.53052039731
O 8.58809252825 3.81957631727 3.3547330738299994
O 3.7126276471500006 1.06021557933 6.40073977357
O 1.17280717123 1.06128029077 3.3575928802899995
O 1.5280221798000002 1.16339892774 8.69609417118
O 3.35327379692 8.587223831819998 3.8223146475
O 6.40027016968 3.71279702518 1.0627197527
O 3.3572389686 1.1728072502599998 1.0624575536199998
O 8.695690431300001 1.5284308578599997 1.1660954367599998
O 3.81974718198 3.3515376252599998 8.58921333992
O 1.06139008762 6.39930736554 3.71447788248
O 1.0619774141 3.3569511863399994 1.17379946584
O 8.593925641629998 1.06232984237 8.23187035269
O 1.1711108817500002 5.937908372729999 6.40765767617
O 6.04657576285 8.697269110669998 3.3616509764299995
O 8.58639623877 8.696204399229998 6.40479786971
O 8.2311812302 8.59408576226 1.0662965788199998
O 6.4059296130800005 1.1702608581799998 5.9400761025
O 3.35893324032 6.04468766482 8.6996709973
O 6.4019644414000005 8.584677439739998 8.69993319638
O 1.0635129787000002 8.22905383214 8.59629531324
O 5.939456228020001 6.40594706474 1.17317741008
O 8.697813322380004 3.35817732446 6.04791286752
O 8.6972259959 6.400533503659999 8.588591284159998
