40   
   
In 7.928825688463246 -0.0912700683846066 13.426616339266008
Ga 5.03113008 -0.055122135 -0.154042215
Al 9.143515420286754 1.3508510896346064 2.040988548233991
Ga 4.112385340286753 1.4059732246346064 2.195030763233991
Ga 4.85254226625 -0.05488729125 5.2003134675
Al 1.5381417590367532 -0.0181913891153934 4.113151505733992
Ga -0.238117085 0.000313125 7.13914091
Ga 8.226472044713244 -0.0916614746346066 4.502690201766009
Al 2.276597225 1.4245560199999998 7.005805395
Al 7.3077273049999985 1.369433885 6.85176318
Al 8.047884230963247 -0.0914266308846066 9.857045884266007
Ga 4.73348372375 -0.05473072875 8.7698839225
Al 2.9572248797132463 -0.0362262146346066 11.795873326766008
Ga 1.359553945286753 -0.0179565453653934 9.467507188233991
Al 5.471939189713246 1.3880166803653933 11.662537811766008
Al 10.503069269713247 1.332894545365393 11.508495596766007
O 3.38068854995 -0.03742982055 1.1089052485000002
O 1.2428765736367533 -0.0178031141153934 12.965686234133992
O 5.79481428755 1.3298433586499998 0.9809031541
O 10.82587630915 1.3908655406499997 0.8223557865000002
O 8.343149416363246 -0.0918149058846066 1.0045111558660087
O 6.20533744005 -0.07218819945 12.861292141500002
O 8.820640322449998 1.40902441135 12.7226232059
O 3.78957830085 1.3480022293499998 12.8811705735
O 6.576030514663246 -0.0739691601846066 5.765637665266008
O 4.91445270835 -0.05496870375 3.3441368309
O 8.990156252263246 1.2933040190153933 5.637635570866009
O 3.9589581138632455 1.4645704710153933 5.7871726332660085
O 1.4762313169367531 -0.0181099766153934 5.969328142333992
O 9.876913574763249 -0.1093537890846066 3.2397427382660084
O 12.492216457163249 1.3718588217153933 3.1010738026660087
O 7.461154435563246 1.3108366397153934 3.2596211702660085
O -0.2908875847632467 -0.0002642309153934 10.730454651733991
O 8.109794673063249 -0.0915080433846066 8.000869247666008
O 2.1232381528367528 1.3670089482846066 10.602452557333994
O 7.154300174436753 1.4280311302846065 10.443905189733991
O 4.67157328165 -0.05464931625 10.6260605591
O 3.0099954753367526 -0.0356488598153934 8.20455972473399
O 5.625298357736753 1.4455637509846064 8.06589078913399
O 10.656496496136754 1.2742972989846064 7.916353726733992
