60   
   
In -0.00406937029 0.00604941192 2.13462046267
In 5.37936356971 0.06698124192 2.14477272267
In -0.01772497529 0.02634945192 9.29777637767
In 5.36570796471 0.08728128192 9.30792863767
In -0.02324183971 0.03455066808 12.19169136733
In 5.36019110029 0.09548249808 12.20184362733
In -0.00958623471 0.01425062808 5.02853545233
In 5.373846705289999 0.07518245808 5.03868771233
In 2.66103069127394 1.60394452402329 6.9107205198985
Ga 8.044463631273938 1.6648763540232898 6.9208727798985
Ga 2.64737508627394 1.62424456402329 14.0738764348985
Ga 8.030808026273942 1.68517639402329 14.0840286948985
In 2.6691694318539394 1.59184570018329 2.6414795945585
Ga 8.052602371853942 1.65277753018329 2.6516318545585
In 2.65551382685394 1.61214574018329 9.8046355095585
Ga 8.03894676685394 1.6730775701832898 9.8147877695585
In -0.0572941918539402 3.1409125998167102 11.6766826454415
Ga 5.32613874814606 3.2018444298167106 11.6868349054415
In -0.0436385868539402 3.1206125598167103 4.5135267304415
Ga 5.33979435314606 3.1815443898167106 4.5236789904415
In -0.0491554512739402 3.12881377597671 7.407441720101499
Ga 5.33427748872606 3.1897456059767104 7.4175939801015
In -0.0354998462739402 3.10851373597671 0.2442858051015
Ga 5.34793309372606 3.1694455659767105 0.2544380651015
O 1.65126954302 0.02891702364 3.58470485358
O 7.034702483019999 0.08984885364 3.59485711358
O 1.8194892208999995 3.2571235082400003 3.57593844122
O 7.202922160899999 3.31805533824 3.58609070122
O -0.8520557214200001 1.43656774812 3.5759409877
O 4.53137721858 1.49749957812 3.5860932477
O 0.7923860190999998 1.47563479176 10.74222379878
O 6.175818959099999 1.53656662176 10.75237605878
O -1.91950197858 3.23525872188 10.7320689923
O 3.46393096142 3.29619055188 10.7422212523
O 3.7048521869799993 0.07261488636 10.751759236420002
O 9.08828512698 0.13354671636 10.76191149642
O 4.31636960458394 1.62681213574329 8.360804910808499
O 9.699802544583939 1.68774396574329 8.370957170808499
O 1.84540283246394 0.16286040034329 8.3601880884485
O 7.228835772463939 0.22379223034329 8.370340348448499
O 1.81304434014394 3.0344628602232904 8.352041044928502
O 7.196477280143938 3.0953946902232903 8.3621933049285
O 3.48479729066394 3.0329298238632902 1.1920120260085
O 8.868230230663938 3.0938616538632906 1.2021642860085
O 3.51715578298394 0.16132736398329 1.2001590695285
O 8.900588722983938 0.22225919398329 1.2103113295285
O 1.0138305185439396 1.56897808846329 1.1913952036485
O 6.3972634585439385 1.62990991846329 1.2015474636485
O 1.5980447214560591 3.1637802115367104 13.1267670363515
O 6.981477661456059 3.2247120415367103 13.1369192963515
O -0.8729220506639401 1.6998284761367102 13.126150213991501
O 4.510510889336059 1.76076030613671 13.136302473991503
O -0.90528054298394 4.571430936016712 13.118003170471502
O 4.47815239701606 4.63236276601671 13.128155430471502
O 0.7664724075360594 4.56989789965671 5.9579741515515
O 6.149905347536059 4.63082972965671 5.9681264115515
O 0.7988308998560598 1.6982954397767105 5.9661211950715005
O 6.18226383985606 1.7592272697767102 5.9762734550715
O -1.70449436458394 3.1059461642567103 5.9573573291915
O 3.6789385754160593 3.1668779942567102 5.9675095891915
