40   
   
Al -0.9695628775 -0.05624927 12.850238353750001
Ga -0.1385089825 -0.00803561 1.83574833625
In 2.4600583215143264 -0.0991539924221495 11.428731136986835
In 6.443715528485673 -0.1099162775778505 2.6642308630131626
In 5.751170615985672 -0.1500943275778505 11.842972544263162
In 3.152603234014326 -0.0589759424221495 2.2499894557368374
Ga 5.005922855 -0.072392695 -0.296512345
Ga 3.825417130985673 1.4767635074221497 4.656837174263162
In 5.124700744014326 1.4312043175778504 9.453328430736835
Ga 10.130623599014326 1.3588116225778504 9.156816085736835
Al 8.831339985985673 1.4043708124221497 4.360324829263162
Ga 1.299283690985673 -0.0455591925778505 4.796491544263161
Ga 7.604490159014325 -0.1635110774221495 9.296470455736836
Ga 2.7370762754336075 -0.0830827730649983 7.757234611346705
Ga 6.166697574566391 -0.1259874969350017 6.335727388653295
Al -0.55403593 -0.03214244 7.342993345
O 9.886058599085677 1.4044914032221494 12.851156917713162
O 9.077758746914329 1.4833725555778503 0.6666721414868377
O 4.069982130914327 1.4310837267778505 0.9624963422868376
O 4.878281983085674 1.3522025744221493 13.146981118513162
O -0.8255135357 -0.0478922356 10.94106008405
O -0.2825583243 -0.0163926444 3.74492660595
O 7.258879821485674 -0.1787242047778505 12.996397462513162
O 1.6448940285143263 -0.0303460652221495 1.0965645374868378
O 2.316008968633608 -0.1075110274649983 13.337909553546703
O 6.587764881366392 -0.1015592425350017 0.7550524464532955
O 6.668549523966392 1.3399653422649982 10.555479283953296
O 2.279714590033608 1.4433209589350016 3.5539981768467044
O 7.287491206033608 1.4956097877350016 3.258173976046704
O 11.67632613996639 1.3922541710649985 10.259655083153296
O 4.243461421566392 -0.1214644497350017 10.689547479153296
O 4.660312428433608 -0.0876058202649983 3.403414520846704
O 3.5808520531 1.5224432907999998 8.35117771845
O 5.3711195829000005 1.510206058 5.75967603075
O 10.3751886769 1.3131318392 5.46247554155
O 8.584921147099998 1.3253690719999998 8.05397722925
O 2.8811256283143263 -0.0747257380221495 5.848056194786838
O 6.022648221685673 -0.1343445319778505 8.244905805213163
O 0.9536732755 -0.0607723172 8.49641826325
O 7.950100574499999 -0.1482979528 5.596543736749999
