40   
   
Ga 8.192764357996113 -0.0509211485645839 13.352584651073942
Ga 4.991747085 -0.00954392 -0.02037025
Ga 9.132254079503888 1.4318904698145838 2.29459384142606
Ga 4.140506994503888 1.4414343898145838 2.3149640914260594
Al 4.9421241825 -0.02324529125 5.2178391425
Al 1.625320137003888 -0.0138379289354161 4.06737282392606
Ga -0.06616387 -0.018268495 6.98427919
Al 8.275469195496113 -0.0280855298145839 4.62223566357394
Al 2.43248202 1.4324367 6.977940255
Al 7.424229105000002 1.42289278 6.957570005
Ga 8.225846292996113 -0.0417869010645839 9.860445056073939
Al 4.9090422475 -0.03237953875 8.7099787375
Ga 3.217558240496112 -0.0368101048145839 11.626885103573938
Al 1.5756972345038882 -0.0275393001854161 9.305582216426057
Al 5.716204130496112 1.413895090185416 11.62054616857394
Ga 10.707951215496111 1.404351170185416 11.600175918573939
O 3.3831401599000004 -0.00959550975 1.1734756923
O 1.543276938203888 -0.0364908627354161 12.727879019526057
O 5.7818402143 1.38308147745 1.1673903147
O 10.7738090871 1.4899757298500005 1.1473277599
O 8.307889491796113 -0.0191339672645839 1.1999388604739405
O 6.4680262701 -0.04602932025 12.7543421877
O 9.0666179957 1.4627040825500002 12.7477496953
O 4.0746491229 1.35580983015 12.7678122501
O 6.666862270396112 -0.0281371195645839 5.81608160587394
O 4.9593267887 -0.01849548255 3.4019265531
O 9.06556232479611 1.364539867635416 5.80999622827394
O 4.074037027596113 1.490521960035416 5.83067417347394
O 1.6081175308038882 -0.0185877376354161 5.88328541332606
O 9.884076120596111 -0.0280339400645839 3.4283897212739403
O 12.482667846196112 1.4806994627354162 3.42179722887394
O 7.490698973396112 1.373805210335416 3.44185978367394
O -0.0329096905961119 -0.0275908899354161 10.499428158726058
O 8.243048899196113 -0.0370370923645839 8.044532466673939
O 2.365790363803888 1.3650860972645835 10.493342781126058
O 7.357759236603888 1.471980349664584 10.473280226326061
O 4.8918396413 -0.03712934745 10.5258913269
O 3.184304159603888 -0.0274877104354161 8.11173627412606
O 5.782895885203888 1.481245692364584 8.105143781726062
O 10.774421182403886 1.355263599964584 8.08446583652606
