80   
   
In 7.6212881025 2.535034845 7.6305664075
In 2.5397064125 7.619741069999998 7.6305338625
In 7.6258039725 7.621085649999999 2.5500460025
In 7.6229136375 7.618226385 7.6333484025
In 2.5425967475 7.622600334999999 2.5472314625
In 7.6241784375 2.53789411 2.5472640075
In 2.5380808775 2.53654953 7.6277518675
Ga 2.5409712125 2.539408795 2.5444494675
In 7.62343550112 4.73240322278 5.09011702934
In 2.54474414612 9.81996871278 0.00678208434
Ga 7.62654690888 5.42657653722 0.00719298066
In 5.08295173528 7.620607790019998 4.7446253693000005
In -0.00477135972 2.53607167002 9.8223312343
In -0.00064857528 7.621733614979998 5.433139955700001
In 4.7348391662 5.077490956079999 7.63035874628
In 9.8193111912 -0.00435600392 2.54708889128
In 5.4245298138 -0.00590658108 7.62795952872
In 2.54044934888 5.42523195722 5.08768084066
Al 7.62492137388 0.34338499722 0.00441098566
In 2.54311861112 4.73677717278 0.00400008934
In 5.08093311472 2.5370273899799995 5.4331725007000005
In 0.00224175972 7.62459287998 0.3498375557
In -0.00188102472 2.53893093502 4.7390288343
In 5.4290456838 5.08014422392 2.54743912372
In 0.3413225888 -0.00439189608 7.62514498872
Ga 4.7361039662 -0.00284131892 2.54427435128
In 2.53882381388 0.34204041722 5.08489884566
In 5.08382344972 2.53988665498 0.3498701007
In 0.3458384588 5.08165890892 2.54462458372
In 7.62506103612 9.81559476278 5.09289902434
In 5.08006140028 7.617748525019999 9.8279277693
In 9.8180463912 5.075976271079999 7.63317328628
O 6.30065600785 3.9694262192 6.67495829849
O 3.86125530889 9.05226972436 8.58771101669
O 8.94752283311 6.187769359439999 1.59433240911
O 6.30027797515 6.184622646999999 8.58749295071
O 6.66892330063 6.29893429765 3.98228482708
O 8.576538625429999 3.85557357189 9.06531013652
O 1.58530116777 8.94246194391 6.19723677088
O 8.578949031169998 6.297118136549999 6.19966294052
O 3.97361673647 6.664417328209999 6.30914592372
O 9.05882252343 8.575555109449997 3.87302134184
O 6.18676657737 1.57907856775 8.950908316159998
O 6.190506287729999 8.575036944589998 6.31141909328
O 3.86322884215 6.188208960799999 3.50283957151
O 6.30262954111 1.10536545564 1.59008685331
O 1.21636201689 3.96986582056 8.58346546089
O 3.86360687485 3.973012533 1.59030491929
O 3.49496154937 3.85870088235 6.19551304292
O 1.58734622457 6.302061608109999 1.11248773348
O 8.57858368223 1.2151732360899998 3.98056109912
O 1.58493581883 3.86051704345 3.97813492948
O 6.19026811353 3.49321785179 3.86865194628
O 1.10506232657 1.58208007055 6.30477652816
O 3.97711827263 8.578556612249997 1.22688955384
O 3.97337856227 1.58259823541 3.86637877672
O 1.22196465285 9.056991709199998 1.59162335349
O 8.94572733389 3.97042276436 3.5044411616899995
O 3.85979973811 1.10323323944 6.67203827411
O 1.2183355501500002 1.105805057 3.49859401571
O 1.58120020563 1.21439817765 9.05999069208
O 3.497847270429999 8.943139061889998 3.98197519152
O 6.66977319277 3.86061498391 1.11396691588
O 3.49700660617 1.2183005465499996 1.11076400552
O 9.05808876147 1.58257036821 1.22587606872
O 3.97109942843 3.49101898945 8.95072720684
O 1.10807522237 6.66664405775 3.86757337116
O 1.10856386273 3.49621935459 1.22252015828
O 8.94192019715 1.1006434708 8.586174516509999
O 1.21815751611 6.1872124156399995 6.67335670831
O 6.30408511189 9.05440194056 3.50575959589
O 8.94554929985 9.051830123 6.67920385429
O 8.582684644369996 8.94323700235 1.11780717792
O 6.66603757957 1.2144961181099998 6.19582267848
O 3.494111657229999 6.297020196089999 9.06383095412
O 6.66687824383 8.93933463345 9.06703386448
O 1.10579608853 8.575064811789998 8.95192180128
O 6.192785421569999 6.66661619055 1.22707066316
O 9.05580962763 3.49099112225 6.31022449884
O 9.055320987270001 6.661415825409999 8.95527771172
