40   
   
Ga -0.0019627615337812 -0.0004095521201662 1.9813862033524572
In -0.0133852784662188 -0.0027929878798338 13.512291546647543
In -1.4858822587356004 4.566735708074337 5.056981839241687
In 0.0191464931570045 1.8810869491792943 5.057050992680881
In 1.5926102617045013 4.527761892448104 5.059130409107033
In 1.6316458882954985 0.9182739975518972 10.438828650892964
Al 4.7101384087356015 0.8793001819256631 10.440977220758311
In 3.2051096568429958 3.5649489408207065 10.440908067319116
In 0.0443310847205124 3.659023369889084 2.662221562362856
Al 3.1799250652794866 1.7870125201109166 12.835737497637146
In 0.0384875361257196 3.657804048196101 8.561219665324861
In 3.18576861387428 1.7882318418038996 6.936739394675139
In -0.00767402 -0.00160127 7.746838875
In 3.16915377 -0.04012159 0.002211845
In -1.549351675 2.764740805 -7.119e-05
Al 1.6198020949999998 2.724619215 0.002140655
O 1.614248347701689 2.7248138726448095 3.9072385801938734
O 0.0665568030214509 5.486592257872253 3.9071674664739584
O -1.5515096740337564 2.764892472361125 3.905029105185791
O 4.775765824033756 2.6811434176388755 11.592929954814208
O 1.6100078022983113 2.72122201735519 11.590720479806127
O 3.1576993469785486 -0.0405563678722522 11.59079159352604
O 0.0327603525331968 3.656609007360763 14.342748577005805
O 3.1914957974668026 1.7894268826392372 1.1552104829941967
O -0.0039759023949408 -0.0008296164497808 4.01362978417218
O -0.0113721376050592 -0.0023729235502192 11.480047965827817
O -1.4453789361453966 4.545656898821889 1.2886242293862853
O 0.0234283905743218 1.9246434669520904 1.2886917185143358
O 1.5590237130319862 4.507621063380174 1.2907210897660106
O 1.6652324369680127 0.9384148266198254 14.207237970233987
O 4.669635086145396 0.900378991178111 14.209334830613715
O 3.2008277594256778 3.52139242304791 14.209267341485663
O -1.6601434420163912 4.667113291738716 9.091855824215235
O 0.0126072767499888 1.682173046480009 9.091932684185501
O 1.7614194814875208 4.623796193630214 9.094243832937368
O 1.4628366685124792 0.8222396963697873 6.40371522706263
O 4.884399592016392 0.7789225982612833 6.406103235784761
O 3.2116488732500112 3.763862843519992 6.4060263758144975
O 0.0405531533169628 3.658235062298204 6.47600180584689
O 3.1837029966830364 1.7878008277017965 9.021957254153108
