80   
   
Al 1.6593347866 7.54445990265 6.58369205334
Al 6.833349641600001 7.531389792649998 6.56313484334
Al 3.57042410302 1.31432283351 1.85043091636
In 8.744438958020002 1.3012527235100002 1.82987370636
Al 0.98789431458 3.10898358129 1.85641136738
Al 6.16190916958 3.09591347129 1.83585415738
In 4.241864575040001 5.749799154870001 6.57771160232
In 9.41587943004 5.736729044870001 6.557154392319999
In 0.940734235785 5.82234711293 -0.01768065801
Al 6.114749090785001 5.80927700293 -0.03823786801
In 4.274226514215 3.027733487070001 4.71631423301
Al 9.448241369215 3.0146633770700006 4.69575702301
Ga 1.683140445195 1.40548078231 4.73050798817
Al 6.857155300195001 1.39241067231 4.7099507781700005
Al 3.5693790348050007 7.46668645769 9.44906313683
Al 8.743393889805 7.45361634769 9.42850592683
In 0.90742066281 0.28543199658 9.46736466147
Ga 6.08143551781 0.27236188658 9.44680745147
Al 4.3450236997300005 8.58669107014 4.69324458843
Al 9.51903855473 8.573620960139998 4.67268737843
In 1.74826299903 4.698298873540001 4.71288550903
In 6.922277854030002 4.6852287635400005 4.69232829903
Al 3.5041813635100003 4.173824193180001 9.447723740870002
Al 8.678196218510001 4.1607540831800005 9.42716653087
Al 3.5772390413950004 1.39821002056 7.44407551857
In 8.751253896395001 1.3851399105600002 7.42351830857
Al 1.6592804196250002 7.4645483108 2.69661621013
In 6.833295274625 7.4514782008 2.67605900013
Al 4.2421648725450005 5.81152128126 2.69029531127
Al 9.416179727545002 5.798451171260001 2.66973810127
Al 0.994354588475 3.051237050100001 7.45039641743
In 6.168369443475 3.0381669401000004 7.42983920743
O 4.337627669255 5.93094809224 8.43520032975
O 9.511642524255 5.917877982240001 8.41464311975
O 0.906854242525 2.9364926068000003 3.71545015955
O 6.080869097525 2.9234224968000007 3.69489294955
O 3.490270692165 1.4959161546200002 3.70861858893
O 8.664285547165 1.4828460446200002 3.68806137893
O 1.7542112196150004 7.37152454442 8.44203190037
O 6.928226074615 7.35845443442 8.421474690370001
O 2.740181738815 0.08669965532 5.95252568179
O 7.9141965938149985 0.07362954532 5.93196847179
O 2.484469163525 8.769079297799998 1.19218978111
O 7.658484018525 8.7560091878 1.17163257111
O 5.060792323565 4.49582848082 1.19216716729
O 10.234807178565 4.48275837082 1.17160995729
O 0.163858578775 4.3599504723 5.95254829561
O 5.337873433775 4.3468803623 5.93199108561
O 0.100486549465 7.323169243319998 1.12928818767
O 5.274501404464999 7.310099133319999 1.10873097767
O 5.123563413195 1.53225632356 5.86373227443
O 10.297578268195002 1.51918621356 5.8431750644300005
O 2.539969631315 2.90201591662 5.87073406897
O 7.713984486315 2.88894580662 5.85017685897
O 2.684080331345001 5.95340965026 1.12228639313
O 7.858095186344999 5.94033954026 1.10172918313
O 5.07161396135 7.39289680005 6.01108942713
O 10.245628816350001 7.37982669005 5.99053221713
O 0.15371299813 1.4632797125900003 1.30428291167
O 5.327727853130001 1.4502096025900002 1.28372570167
O 2.74448873573 2.96160291389 1.2903870483700002
O 7.918503590730001 2.9485328038900005 1.2698298383700002
O 2.48083822375 5.894573598750001 6.02498529043
O 7.654853078749999 5.881503488750002 6.00442808043
O 1.904113532935 1.51926697683 8.19945350719
O 7.078128387935 1.50619686683 8.17889629719
O 3.338340207425 7.34698104365 3.43922635441
O 8.512355062424998 7.33391093365 3.41866914441
O 0.7477861351250001 5.937178916250001 3.45290943781
O 5.921800990125001 5.9241088062500005 3.43235222781
O 4.494667605235 2.9290691042300003 8.18577042379
O 9.668682460235 2.91599899423 8.16521321379
O 4.3593014423100005 0.01780347143 8.51563668945
O 9.533316297310002 0.00473336143 8.49507947945
O 0.88570629169 8.84994644057 3.767746925550001
O 6.05972114669 8.83687633057 3.74718971555
O 3.46167478725 4.43506190535 3.76806475957
O 8.635689642249998 4.42199179535 3.74750754957
O 1.78333294675 4.43268800665 8.515318855430001
O 6.957347801750001 4.41961789665 8.494761645429998
