80   
   
In 1.7029925731800002 7.713591542829999 6.70796679117
In 6.997446008180001 7.700398942829999 6.68277608617
Al 3.65499031428 1.34447240187 1.88345981287
In 8.94944374928 1.33127980187 1.85826910787
In 1.01227268724 3.17799431023 1.89024930359
Ga 6.30672612224 3.16480171023 1.86505859859
In 4.34571020022 5.88006963447 6.70117730045
In 9.64016363522 5.86687703447 6.67598659545
Al 0.962395192205 5.9487130310400005 -0.023421299815
Ga 6.256848627205001 5.9355204310400005 -0.048612004815
Al 4.377427017795 3.0974205739600005 4.804700784815
Al 9.671880452795 3.0842279739600005 4.779510079815
In 1.726093009975 1.4398866168400002 4.822584645075
Al 7.020546444975 1.4266940168400002 4.797393940075
In 3.659822290025 7.63652703816 9.629118999925002
In 8.954275725025001 7.62333443816 9.603928294925002
In 0.9361848408900002 0.29935899855 9.6556594407
Ga 6.2306382758900005 0.28616639855 9.6304687357
Al 4.44963827293 8.77699409635 4.77670335598
Al 9.74409170793 8.76380149635 4.75151265098
Al 1.7925897742300003 4.804148477150001 4.80194514008
In 7.08704320923 4.790955877150001 4.77675443508
Al 3.59323333959 4.27220461775 9.6304176566
In 8.887686774589998 4.25901201775 9.6052269516
Al 3.6664804549150007 1.43473069861 7.588855704264998
Ga 8.960933889915 1.42153809861 7.563664999264998
In 1.699799188745 7.62878365509 2.7432472485749995
Al 6.994252623745 7.61559105509 2.7180565435749995
In 4.342873971464999 5.939968725610001 2.7359978876149995
Ga 9.637327406465 5.926776125610001 2.7108071826149995
Al 1.023405672195 3.1235456280900005 7.596105065225
In 6.317859107195001 3.1103530280900005 7.570914360225
O 4.445196598855 6.066663973670001 8.595577356025
O 9.739650033855002 6.053471373670001 8.570386651025
O 0.930854779885 3.0032697506300003 3.786655518735
O 6.2253082148850005 2.9900771506300003 3.761464813735
O 3.5744652961250005 1.5315152894700004 3.778716352415
O 8.868918731124998 1.5183226894700004 3.753525647415
O 1.801586082615 7.53841843483 8.603516522345
O 7.096039517615 7.52522583483 8.578325817345
O 2.8087815070550004 0.09351771207 6.069212999505
O 8.103234942054998 0.08032511207 6.044022294505
O 2.542932720165 8.96042814583 1.207035918775
O 7.837386155165 8.94723554583 1.181845213775
O 5.179400122804999 4.59453410707 1.208294157255
O 10.473853557805 4.58134150707 1.183103452255
O 0.172314104415 4.459411750830001 6.067954761025
O 5.466767539415 4.446219150830001 6.042764056025
O 0.103454549625 7.48300796791 1.1459739197549998
O 5.397907984625 7.46981536791 1.120783214755
O 5.247522188155 1.57045340919 5.975548211965
O 10.541975623155 1.55726080919 5.950357506965
O 2.6037330940750003 2.96985438091 5.983717313405
O 7.898186529075 2.95666178091 5.958526608405
O 2.747243643705 6.083606996190001 1.137804818315
O 8.041697078704999 6.070414396190001 1.1126141133149998
O 5.194255192290001 7.5583909249999985 6.12124577067
O 10.488708627289999 7.5451983249999985 6.09605506567
O 0.15828871055 1.4960999738000005 1.32907078249
O 5.45274214555 1.4829073738000005 1.30388007749
O 2.80931020715 3.0270153244 1.31158930869
O 8.103763642150001 3.0138227244 1.28639860369
O 2.54323369569 6.0274755744 6.13872724447
O 7.837687130690002 6.0142829744 6.11353653947
O 1.955009085075 1.5589716453000002 8.360607356754999
O 7.249462520075 1.5457790453000002 8.335416651754999
O 3.4185532668050005 7.5093269563 3.499422613365
O 8.713006701805002 7.4961343563 3.474231908365
O 0.7677549925050001 6.068853467500001 3.516616668265
O 6.062208427505 6.055660867500001 3.491425963265
O 4.605807359375 2.9994451341 8.343413301854998
O 9.900260794375 2.9862525341 8.318222596854998
O 4.467669174890001 0.02526721758 8.68229357273
O 9.76212260989 0.01207461758 8.65710286773
O 0.90902750711 9.045090427420002 3.83532524027
O 6.20348094211 9.031897827420002 3.81013453527
O 3.5451377540700006 4.53448940978 3.83704334899
O 8.839591189070001 4.52129680978 3.81185264399
O 1.83155892793 4.535868235220001 8.680575464009998
O 7.126012362930001 4.522675635220001 8.655384759009998
