80   
   
In 1.59066606047 7.247600250719999 6.36404345843
Al 6.55027340047 7.230180865719999 6.34987147343
Al 3.4217204466299997 1.2585314298999997 1.7909836637700003
Al 8.381327786629999 1.2411120448999995 1.77681167877
Al 0.94791725531 2.9875636244599995 1.7964105595700002
Al 5.90752459531 2.9701442394599997 1.7822385745700002
Al 4.06446925179 5.51856805616 6.35861656263
Al 9.02407659179 5.501148671159999 6.34444457763
Ga 0.90731582758 5.600704733825 -0.007941169615
Al 5.86692316758 5.583285348825 -0.022113154615
Al 4.094901677419999 2.902296526175 4.559052734615
Al 9.05450901742 2.884877141175 4.544880749615
Al 1.6096322248599997 1.3439797811549998 4.567649983515
Al 6.569239564859999 1.3265603961549997 4.5534779985150005
Al 3.41839493014 7.166966708844999 9.130455381485
Al 8.378002270139998 7.149547323844999 9.116283396485
Al 0.85988903367 0.26050426899 9.13521951222
In 5.81949637367 0.24308488399 9.12104752722
Ga 4.16808650203 8.250426330549999 4.54459186518
Al 9.12769384203 8.23300694555 4.53041988018
Al 1.67521248243 4.51189888985 4.555291731680001
Al 6.63481982243 4.49447950485 4.541119746680001
Al 3.35276305327 3.999031709689999 9.12451964572
Al 8.31237039327 3.98161232469 9.11034766072
Al 3.4223069608300003 1.3314029579949995 7.187686814925001
Al 8.38191430083 1.3139835729949998 7.173514829925001
Al 1.5947252832699998 7.176158864024999 2.613799191275
Al 6.55433262327 7.158739479024999 2.599627206275
Al 4.06900376003 5.583389837945 2.608240881875
Ga 9.028611100029998 5.565970452945 2.594068896875
Al 0.94802848407 2.924171984075 7.193245124325001
Al 5.90763582407 2.906752599075 7.179073139325001
O 4.15443537477 5.690158152294999 8.151022156685
O 9.11404271477 5.672738767295 8.136850171685001
O 0.8680685151299999 2.819088058485 3.5896265351150003
O 5.82767585513 2.801668673485 3.5754545501150004
O 3.34305992005 1.430713785125 3.5838711053150005
O 8.30266726005 1.413294400125 3.5696991203150006
O 1.67944396985 7.078532425654999 8.156777586485001
O 6.639051309849999 7.061113040655 8.142605601485
O 2.62029547141 0.072500404815 5.745944887925001
O 7.579902811409998 0.055081019815 5.731772902925001
O 2.38858092329 8.432550724524997 1.165091077475
O 7.348188263290002 8.415131339525 1.150919092475
O 4.85406661941 4.318913081565 1.161963919675
O 9.813673959409998 4.301493696565 1.147791934675
O 0.15480977529 4.186138047774999 5.749072045725001
O 5.114417115289999 4.1687186627749995 5.734900060725001
O 0.10208339393 7.043802602864999 1.099781229575
O 5.061690733929999 7.026383217864999 1.085609244575
O 4.90638004637 1.461121402795 5.664902835025
O 9.86598738637 1.443702017795 5.650730850025
O 2.43115099873 2.781364091915 5.670723971625001
O 7.39075833873 2.763944706915 5.656551986625001
O 2.57731244157 5.723559913745 1.093960092975
O 7.536919781569998 5.706140528745 1.079788107975
O 4.86200885008 7.099371519569999 5.8151487277300005
O 9.821616190079999 7.08195213457 5.8009767427300005
O 0.14733211832 1.4058226239099998 1.26053312607
O 5.10693945832 1.3884032389099998 1.2463611410700002
O 2.63218569612 2.8449090965100003 1.25205086407
O 7.591793036119999 2.82748971151 1.2378788790700002
O 2.37715527228 5.66028504697 5.823630989730001
O 7.3367626122799985 5.642865661969999 5.809459004730001
O 1.81781931444 1.448388336295 7.914784274715
O 6.77742665444 1.430968951295 7.900612289715
O 3.20329085436 7.060428832064999 3.331926751885
O 8.162898194359999 7.043009447064999 3.3177547668850003
O 0.7187343299600001 5.706506839765001 3.340326880385
O 5.67834166996 5.6890874547650006 3.326154895385
O 4.30237583884 2.802310328595 7.906384146215
O 9.261983178839996 2.784890943595 7.892212161215
O 4.16949012658 0.00110454917 8.22043842719
O 9.12909746658 -0.01631483583 8.206266442190001
O 0.8533750984199999 8.50825289483 3.64826817781
O 5.81298243842 8.490833509829999 3.63409619281
O 3.3183855091 4.258352083389999 3.6452724336100006
O 8.277992849099999 4.240932698389999 3.63110044861
O 1.7044797159 4.25100536061 8.22343417139
O 6.6640870559000005 4.23358597561 8.209262186390001
