40   
   
Ga 0.06738123 -0.028298305 13.203054550000001
In 0.00962589 -0.004042615 1.88615065
In 0.0827106505056859 3.717744114118033 11.952014732942407
In 3.2692165794943144 1.8463669758819676 3.129600847057591
In 3.24230004 -0.018568975 -0.017180695
In -1.604839985 2.81679498 0.013385885
In 1.637460055 2.798226005 -0.00379481
In -1.5682975555056855 4.677688315881968 5.046318077057591
In 0.0365424294943144 1.8608933358819677 5.032932192057591
Ga 1.6740024844943142 4.659119340881968 5.02913738205759
Ga 1.6779247455056858 0.9049917491180324 10.052478197942408
In 4.920224785505686 0.8864227741180325 10.035297502942408
In 3.315384800505686 3.703217754118033 10.048683387942408
In 0.0634588712757571 3.725829343794624 8.179713583834461
In 3.288468358724243 1.8382817462053769 6.901901996165539
In 0.03850356 -0.01617046 7.5446026
O 4.874976442694313 0.9160884570819676 13.83315523345759
O 3.334330057094314 3.620211637881968 13.84600568305759
O 1.7623684042943144 0.9339146730819676 13.84964870065759
O 1.5895588257056856 4.630196416918033 1.2319668793424092
O -1.5230492126943145 4.648022632918034 1.2484603465424091
O 0.0175971729056859 1.9438994521180324 1.2356098969424092
O 0.0573703044 -0.0240939854 11.241457874
O 0.0196368156 -0.0082469346 3.847747326
O 0.0927215768757571 3.713539794194624 13.913611559834461
O 3.2592056531242437 1.8505712958053768 1.1680040201655388
O 1.759715615524243 2.736219345005377 11.28755280976554
O 3.3003620011242427 0.0320961642053767 11.27470236016554
O 4.872323653924243 2.718393129005377 11.27105934256554
O -1.5203964239242431 2.845717960994623 3.8105562374344606
O 1.592211614475757 2.827891744994623 3.794062770234461
O 0.0515652288757572 5.532014925794624 3.8069132198344606
O -1.6135459967999997 4.7073540562 8.8441755064
O 0.0554875876 1.777887277 8.830254185999998
O 1.7584460448000003 4.6880423222 8.8263075836
O 1.5934811852 0.8760687678 6.2553079964
O 4.9654732268 0.8567570338 6.2374400736
O 3.2964396424 3.786223813 6.251361394
O 0.0534479449056859 3.7300336637180327 6.218116756942409
O 3.2984792850943148 1.8340774262819677 8.86349882305759
