40   
   
Ga 0.0328341332327534 3.459883666915811 14.008970463831346
In 1.5057686584449663 2.5964965766554085 2.432790147062422
Al 3.0048461784449665 -0.0011245733445917 2.4300896070624223
Al -1.4934958665550335 2.5970582316554083 2.439155032062422
Al 2.9996343833222805 1.7309985426787813 -0.0066861533937695
Al 0.0097678934449664 -0.0009851070945917 4.263795324562422
Al -1.4819627016777197 4.327492592678781 7.31174260160623
In 0.0171148183222803 1.7298714426787811 7.30904206160623
Al 1.5173018233222804 4.326930937678781 7.30537771660623
Al 0.0119029332327534 3.461994610665811 4.872266301331347
In 0.0244616532327534 3.460728044415811 10.354288798831346
Al 3.0205655833222806 1.7288875989287813 9.13001800910623
Al 4.526989938232753 0.8621230506658104 12.172564206331348
Ga 3.027912418232753 3.459744200665811 12.175264746331347
In 1.5277254132327536 0.8626847056658105 12.178929091331348
In 0.0223266134449664 -0.0022516733445917 9.745817822062422
O 4.44195048092228 0.8992929567287813 1.2330046767062306
O 3.00283606172228 3.3930092607287814 1.2355971951062306
O 1.562656536922281 0.8998321455287813 1.2391149663062306
O 0.0305316438449664 -0.0030791632945917 13.327405853762423
O 0.0036979028327534 3.462822100615811 1.2906782696313472
O 1.5908082057222803 2.559326618628781 13.37234967650623
O 3.02992262492228 0.0656103146287813 13.36975715810623
O 4.470102149722281 2.5587874298287816 13.366239386906232
O 1.4542190308327536 2.6302890247158106 6.111957131431347
O 0.0151046116327539 5.12400532871581 6.114549649831347
O -1.4250749131672469 2.63082821351581 6.118067421031348
O 3.0078394137222806 1.7301710527287812 3.5749018783062305
O 0.0141215830449664 -0.0014241833945917 6.164229790362422
O -1.4304131643672466 4.293700196615809 3.6325754712313474
O 0.0087012548327535 1.7999838926158107 3.629982952831347
O 1.4488807796327536 4.293161007815811 3.6264651816313473
O -1.5335123289550332 4.3612850407054085 10.99090973216242
O 0.0255282918449664 1.6597590447054085 10.98810117056242
O 1.5857227770449671 4.360700919505408 10.984290251762422
O 0.0201079636327534 3.461167120715811 8.453854333031346
O 3.0249192729222805 1.7284485226287811 11.03045247490623
O 4.5785395658449675 0.8283306026054084 8.493397221962422
O 3.0194989450449667 3.529856598605409 8.496205783562422
O 1.4593044598449665 0.8289147238054083 8.500016702362425
