80   
   
In 7.1732505425 2.3889795175 7.1552549425
Al 2.3894537225 7.1576456325 7.1705185625
Al 7.1576328475 7.172215082499999 2.3857766125
Al 7.1658587625 7.1652172425 7.1620929075
In 2.3812278075 7.164643472499999 2.3942022675
Al 7.1650246275 2.3959773575 2.3789386475
In 2.3968455025 2.3814079075 7.1636805975
In 2.3886195875 2.3884057475 2.3873643025
In 7.16594433604 4.4558131347 4.77005079588
Al 2.37392160104 9.231477089699998 0.00899812088
In 7.156713138960001 5.1123793053 -0.00533553588
Al 4.77298392278 7.16540621062 4.45335807944
In 0.01219657778 2.37459903562 9.23126206444
Al -0.00230239278 7.15688289438 5.111362750560001
Al 4.456556589780001 4.77279770552 7.16345969704
In 9.23212749478 0.01112943052 2.37187978204
In 5.113539455220001 -0.00241028052 7.15547584296
Al 2.38853401396 5.0978098553 4.77940641412
In 7.164104918960001 0.3361415803 -0.01217350088
Ga 2.38131338104 4.4552393647 0.00216015588
Ga 4.78149442722 2.3882167793799995 5.09609913056
Al -0.01052830778 7.163880734379999 0.33504645556
Ga 0.00397066278 2.38159687562 4.45494576944
Al 5.097921760220001 4.78082528448 2.38599751296
Al 0.33713441522 -0.00998189052 7.16390149796
Al 4.455722454780001 0.00355782052 2.38030543704
In 2.39592579396 0.3215721303 4.77256844912
Ga 4.77326851222 2.3952146193799995 0.31978283556
Al 0.3215167202200001 4.77325367448 2.39442316796
Ga 7.15855255604 9.2320508597 4.77688876088
Ga 4.78120983778 7.15840837062 9.22967437444
In 9.23296162978 4.78036931552 7.15503404204
O 5.92775427812 3.73522553127 6.2614264554700005
O 3.63078102296 8.50519769563 8.06820366179
O 8.400036167839998 5.82860025657 1.48371017261
O 5.9276244060800005 5.815033991529999 8.060302735129998
O 6.263910270810001 5.926996420439999 3.73250395993
O 8.07161253525 3.6302513978 8.50236998545
O 1.4872480041500002 8.400017369199999 5.82695926135
O 8.063425064789998 5.92679228756 5.81180981827
O 3.73565086052 6.26366757262 5.92501475367
O 8.50532815204 8.070463530419998 3.62652835191
O 5.82983271376 1.4870921927799998 8.39818767649
O 5.81538414868 8.062834179179998 5.92391224293
O 3.626724071880001 5.818397458729999 3.28803075453
O 5.923697327040001 1.04842529437 1.48125354821
O 1.15444218216 3.72502273343 8.06574703739
O 3.626853943920001 3.73858899847 1.48915447487
O 3.29056807919 3.62662656956 5.81695325007
O 1.48286581475 5.923371592199999 1.04708722455
O 8.067230345849998 1.1536056207999998 3.72249794865
O 1.49105328521 3.62683070244 3.73764739173
O 5.81882748948 3.2899554173799994 3.62444245633
O 1.04915019796 1.48315945958 5.92292885809
O 3.72464563624 8.06653079722 1.15126953351
O 3.73909420132 1.4907888108199998 3.62554496707
O 1.13573154312 8.510889486269999 1.50037378047
O 8.406351927959998 3.74352942063 3.27662374679
O 3.63924882284 1.0377930815699998 6.26161415761
O 1.15038523108 1.03822249653 3.28557413013
O 1.50312292581 1.13618924544 8.51040794493
O 3.27958980025 8.4059153528 3.74131731045
O 6.262818909150001 3.6383490942 1.03537934635
O 3.28618588979 1.14998079256 1.03708121327
O 8.511221765519998 1.5019992976199998 1.13343483867
O 3.74454080704 3.27965635542 8.40443233691
O 1.03780997876 6.262756147779999 3.63713500149
O 1.03814497368 3.2860226841799998 1.14918363793
O 8.41874680688 1.04273350373 8.04908342953
O 1.14812642204 5.810093569369999 6.2728334632100005
O 5.91522952716 8.51582990843 3.2878430523899995
O 8.40409311892 8.51540049347 6.26388307987
O 8.051355424189998 8.417433744559998 1.03904926507
O 6.274888549750001 1.1477076372 5.80813989955
O 3.29165944085 5.9152738958 8.51407786365
O 6.2682924602100005 8.40364219744 8.51237599673
O 1.04325658448 8.05162369238 8.416022371329998
O 5.80993754296 6.27396663458 1.14502487309
O 8.51666837124 3.29086684222 5.91232220851
O 8.51633337632 6.26760030582 8.40027357207
