80   
   
Ga 1.75300420229 7.866556665049998 6.81835007107
Ga 7.152397957290001 7.84721665005 6.78665759607
Ga 3.73111196281 1.36794043721 1.91138086537
Ga 9.13050571781 1.34860042221 1.87968839037
Ga 1.03803971167 3.24002188191 1.92004803297
Ga 6.43743346667 3.22068186691 1.88835555797
Ga 4.446076453430001 5.99447522035 6.80968290347
Ga 9.84547020843 5.97513520535 6.77799042847
Ga 0.988070710585 6.063205096115 -0.029058240125
Ga 6.387464465585 6.043865081115001 -0.060750715125
Ga 4.473160299415 3.1563171338850005 4.881827695125
Ga 9.872554054415 3.1369771188850004 4.850135220125
Ga 1.7674291087950005 1.469533158985 4.904213283425
In 7.166822863795 1.450193143985 4.8725208084250005
Ga 3.751886051205001 7.787996361014998 9.788559931575
In 9.151279806205 7.768656346014998 9.756867456575002
In 0.9661080720900002 0.31131591819 9.82377322194
In 6.36550182709 0.29197590319 9.79208074694
In 4.553090919609999 8.94613758723 4.84931998554
In 9.95248467461 8.926797572229999 4.81762751054
In 1.83896416291 4.89906981073 4.88080380104
In 7.23835791791 4.87972979573 4.84911132604
In 3.6802348287900006 4.35838369469 9.79228940644
In 9.07962858379 4.33904367969 9.76059693144
In 3.749445791485001 1.464181627155 7.716793841595002
Ga 9.148839546485002 1.4448416121549998 7.685101366595
In 1.745125520615 7.777156787305 2.784137771645
In 7.144519275615 7.757816772305 2.752445296645
Ga 4.438722494635 6.052593080205001 2.774901964845
In 9.838116249635 6.033253065205001 2.743209489845
In 1.055848817465 3.188745334255 7.726029648395
In 6.455242572465 3.169405319255 7.694337173395
O 4.549906544264999 6.185993040935 8.737074069354998
O 9.949300299265 6.166653025935 8.705381594355
O 0.956978607635 3.063402919005 3.849938341005
O 6.356372362635001 3.0440629040050005 3.818245866005
O 3.651362665975 1.560115818305 3.839849575405
O 9.050756420975 1.540775803305 3.808157100405
O 1.855522485925 7.689280141634998 8.747162834955
O 7.254916240924999 7.669940126634998 8.715470359955
O 2.8715118083450006 0.096731804935 6.172403956115
O 8.270905563345 0.077391789935 6.140711481115
O 2.604704912355 9.132596305885 1.219086468965
O 8.004098667355 9.113256290885 1.187393993965
O 5.288594513095 4.678954453185001 1.220370487365
O 10.687988268095 4.659614438185001 1.188678012365
O 0.187622207605 4.550373657634999 6.171119937715
O 5.587015962605 4.531033642634999 6.139427462715
O 0.115140702335 7.6291318440649984 1.160773529185
O 5.514534457335 7.609791829065 1.129081054185
O 5.360146671965 1.5995881501149998 6.073276835735
O 10.759540426965 1.5802481351149995 6.041584360735
O 2.665500252185 3.029116382015 6.083649920935
O 8.064894007185 3.009776367015 6.051957445935
O 2.8097871221150004 6.199603612165 1.150400443985
O 8.209180877115001 6.180263597165 1.118707968985
O 5.3126523928600005 7.704032087439998 6.21744145493
O 10.71204614786 7.684692072439998 6.1857489799300005
O 0.16460984254 1.5259801546 1.35116903783
O 5.56400359754 1.5066401396000002 1.31947656283
O 2.86988190064 3.0836861091000003 1.3292810088300002
O 8.269275655640001 3.0643460941000003 1.2975885338300002
O 2.60738033476 6.1463261329400005 6.23932948393
O 8.00677408976 6.1269861179400005 6.20763700893
O 2.005057200055 1.593308529725 8.503960481185
O 7.404450955055002 1.5739685147250002 8.472268006185
O 3.4986914077450004 7.6540350365549985 3.551691726135
O 8.898085162744998 7.634695021555 3.519999251135
O 0.7937473014450002 6.188527668055001 3.573224355635
O 6.193141056445 6.169187653055001 3.541531880635
O 4.710001306355001 3.058815898225 8.482427851684998
O 10.109395061354999 3.039475883225 8.450735376684998
O 4.5662017093600005 0.02725816706 8.829472934950001
O 9.96559546436 0.00791815206 8.797780459950001
O 0.9414966206400002 9.22266989494 3.89529952805
O 6.340890375639999 9.20332987994 3.86360705305
O 3.6248614985 4.62151030464 3.89715218565
O 9.0242552535 4.60217028964 3.86545971065
O 1.8828368315000004 4.62841775736 8.82762027735
O 7.282230586500002 4.609077742360001 8.79592780235
