80   
   
Al 1.7517395878100002 7.93128449983 6.86934701439
Ga 7.204031527810001 7.92220404483 6.83982717939
In 3.76409282315 1.38596612755 1.92735182779
In 9.21638476315 1.3768856725500005 1.8978319927900005
In 1.04102019225 3.26709304125 1.93437207893
In 6.49331213225 3.25801258625 1.90485224393
In 4.47481221871 6.05015758613 6.86232676325
In 9.92710415871 6.04107713113 6.83280692825
Al 0.98597143116 6.111216378355 -0.030495438905
In 6.438263371160001 6.102135923355001 -0.060015273905
In 4.50856297884 3.1900371516450003 4.920453408905
In 9.96085491884 3.1809566966450005 4.890933573905
In 1.7796175316400002 1.485211288745 4.942263319525
Al 7.23190947164 1.476130833745 4.912743484525
In 3.7689727183600006 7.856644011254998 9.863280620475
Ga 9.22126465836 7.847563556255 9.833760785475
In 0.97044326658 0.31773664479 9.89956159635
In 6.42273520658 0.30865618979 9.87004176135
In 4.5780388717400005 9.02403745167 4.88615117171
In 10.03033081174 9.01495699667 4.8566313367100005
In 1.84519849974 4.940963115170001 4.91776976841
Ga 7.2974904397400016 4.93188266017 4.88824993341
In 3.70328363858 4.40081098129 9.86794299965
In 9.15557557858 4.39173052629 9.83842316465
Al 3.7797506093300006 1.484268678015 7.777329588155002
Al 9.23204254933 1.4751882230150002 7.747809753155002
In 1.74581185283 7.840290267965 2.804174728625
In 7.1981037928300005 7.831209812964999 2.774654893625
In 4.469127916530001 6.107803883865 2.796541434605
Al 9.921419856530001 6.098723428865001 2.767021599605
In 1.0564345456300002 3.2167550621150003 7.784962882175002
Al 6.50872648563 3.2076746071150004 7.755443047175
O 4.57840041733 6.243761827315001 8.804513472575001
O 10.03069235733 6.234681372315 8.774993637575001
O 0.9586218829100002 3.089404693905 3.879095069845
O 6.41091382291 3.080324238905 3.849575234845001
O 3.682303095810001 1.5798791042050002 3.870542211505
O 9.13459503581 1.5707986492050003 3.841022376505
O 1.8547192044300005 7.753287417015 8.813066330915001
O 7.30701114443 7.744206962015002 8.783546495915001
O 2.8965913228100004 0.104381572355 6.221060825135
O 8.348883262809998 0.095301117355 6.1915409901350005
O 2.61188949391 9.207347214305 1.2271183251250002
O 8.06418143391 9.198266759305 1.197598490125
O 5.33070205081 4.725011032605 1.2308263243850002
O 10.78299399081 4.715930577605 1.201306489385
O 0.17777876591 4.586717754055 6.217352825875
O 5.63007070591 4.5776372990550005 6.187832990875
O 0.10090756859 7.687633981044998 1.167656450985
O 5.55319950859 7.678553526045 1.138136615985
O 5.40670835469 1.623445177295 6.1218733237550005
O 10.85900029469 1.614364722295 6.092353488755
O 2.68290542539 3.0586505021950003 6.130732703535
O 8.13519736539 3.0495700471950005 6.101212868535
O 2.8247104978900004 6.252428656145001 1.158797071205
O 8.277002437889998 6.243348201145 1.129277236205
O 5.34681954085 7.7742553655 6.26545739394
O 10.79911148085 7.7651749105 6.235937558940001
O 0.16263428099 1.53820425302 1.36120230378
O 5.61492622099 1.52912379802 1.3316824687800002
O 2.8913667244900005 3.11296965252 1.3399288056800005
O 8.343658664490002 3.10388919752 1.3104089706800002
O 2.61808709735 6.199489966000001 6.2867308920400005
O 8.070379037349998 6.190409511 6.25721105704
O 2.01767622128 1.6111887155650002 8.569727208985
O 7.46996816128 1.602108260565 8.540207373985
O 3.5164270636 7.719785310075 3.5784396910550003
O 8.9687190036 7.710704855075 3.548919856055
O 0.7878467656000001 6.237920241575 3.599330037355
O 6.240138705600001 6.2288397865750005 3.569810202355
O 4.74625651928 3.093053784065 8.548836862685
O 10.19854845928 3.083973329065 8.519317027685
O 4.60678153239 0.03824036572 8.89931047576
O 10.05907347239 0.02915991072 8.86979064076
O 0.93099754961 9.29549458028 3.92311627024
O 6.38328948961 9.28641412528 3.893596435240001
O 3.6495666737100008 4.66451786898 3.92743731238
O 9.10185861371 4.6554374139800005 3.897917477380001
O 1.88821240829 4.66921707702 8.894989433620001
O 7.340504348290001 4.6601366220200005 8.86546959862
