80   
   
Ga 7.1438634225 2.3796707525 7.1255656425
In 2.3793874975 7.1283898175 7.1409164375000005
Al 7.1277690775 7.1431387675 2.3756666775
Al 7.1361514275 7.1362282875 7.1323494675
In 2.3710051475 7.1353002975 2.3842336475
Al 7.1354810725 2.3865812325 2.3688828525
Al 2.3870994925 2.3718322825 7.1341326125
In 2.3787171425 2.3787427625 2.3774498225
Al 7.13634066566 4.43795884762 4.7501548599
Al 2.36348239066 9.19358839262 0.0088228649
Al 7.12690948434 5.09176115238 -0.0056053299
In 4.7530082877 7.13623420514 4.434837127780001
In 0.0123387027 2.36492772014 9.19330306278
In -0.0026156427 7.12745590986 5.09031295722
Al 4.43816551276 4.75349726904 7.13382359396
Al 9.19425908776 0.01168868404 2.36179000896
In 5.09279740224 -0.00199423404 7.12587466104
In 2.3785279043400003 5.07701220238 4.7596444301
Al 7.13462147934 0.33520361738 -0.0123891549
Al 2.37119438566 4.43703085762 0.0020390399
In 4.761860282300001 2.37873684486 5.07496216222
Al -0.0109979927 7.13436638986 0.3336301672200001
In 0.0039563527 2.37183820014 4.436620272780001
Al 5.07670305724 4.76147378096 2.3759756960400003
Al 0.33603347224 -0.00983270404 7.1344416310400005
Al 4.43749515776 0.00385021404 2.37035697896
In 2.38623989934 0.3204546673800001 4.7528606051
Ga 4.7534779323 2.38564732486 0.31827937222
In 0.31993912724 4.75363531096 2.38454266604
Al 7.12862867066 9.19451638262 4.756938684900001
Ga 4.7613906377 7.129323725140001 9.19151991778
Al 9.19492944276 4.76133573904 7.12525662396
O 5.90335413631 3.72028114541 6.235449728830001
O 3.61554721851 8.470477874329998 8.03485842847
O 8.36512660009 5.80512671507 1.47726986213
O 5.90314347009 5.79154189019 8.02692020557
O 6.237866400060001 5.90301142068 3.71689802014
O 8.03849374534 3.6159005886 8.46710339342
O 1.4807469372600002 8.365569899599999 5.80290627558
O 8.030064342339998 5.90294571612 5.78759053586
O 3.72006536982 6.2381641742600005 5.90048766746
O 8.469906061699998 8.03778530782 3.61126367646
O 5.8060852603 1.48143076258 8.36344369434
O 5.791114733180001 8.03004738034 5.89930318674
O 3.61151443369 5.794689904589999 3.27434956117
O 5.89932135149 1.04449317567 1.47494086153
O 1.1497419699100002 3.70984433493 8.03252942787
O 3.61172509991 3.72342915981 1.48287908443
O 3.27700216994 3.61195962932 5.79290126986
O 1.47637482466 5.899070461399999 1.04269589658
O 8.034121632740002 1.1494011504 3.70689301442
O 1.48480422766 3.61202533388 3.72220875414
O 5.79480320018 3.27680687574 3.60931162254
O 1.0449625083 1.47718574218 5.89853561354
O 3.7087833097 8.033540287419997 1.14635559566
O 3.72375383682 1.48492366966 3.61049610326
O 1.13049586131 8.47591069041 1.49411773383
O 8.37164079351 3.72866928933 3.26282484347
O 3.62445701509 1.03382023007 6.23573579713
O 1.14570918509 1.03405636519 3.27202056057
O 1.49719681506 1.13170493568 8.47536395514
O 3.26563547034 8.371530133599999 3.72577139842
O 6.236840512260001 3.6237613146 1.03087269058
O 3.27263005734 1.1454601911200002 1.03269089086
O 8.47615894482 1.49635558926 1.12845408246
O 3.7292364767 3.26647882282 8.36972961146
O 1.0332269853000002 6.23706030758 3.62211169934
O 1.03368044818 3.27256185534 1.14440354174
O 8.38437270869 1.03906035959 8.015681556169998
O 1.14322777649 5.78630176067 6.24697444653
O 5.89041155491 8.481150819929999 3.27406349287
O 8.36915938491 8.48091468481 6.23777872943
O 8.01767175494 8.383266114319998 1.03443533486
O 6.2492330996600005 1.1434409164 5.78402789158
O 3.27802805774 5.8912097354 8.478926599420001
O 6.24223851266 8.369510858879998 8.47710839914
O 1.03870962518 8.018615460739998 8.38134520754
O 5.7856320933 6.248492227180001 1.14006967854
O 8.4816415847 3.27791074242 5.887687590660001
O 8.48118812182 6.24240919466 8.365395748260001
