80   
   
Al 7.1443153475 2.380072255 7.12743889
Al 2.3793412025 7.12984347 7.141915405
Al 7.1290324925 7.143934145 2.376455445
Al 7.1368667325 7.13736423 7.13391846
Al 2.3715069625 7.136413385 2.38445239
Al 7.1364811075 2.38664217 2.369975875
In 2.3867898174999995 2.372551495 7.135435835
Al 2.3789555775 2.37912141 2.37797282
Al 7.1371804258200005 4.438507345700001 4.75150655674
In 2.36437204082 9.1948484757 0.00852005674
In 7.12833317418 5.0920689693000005 -0.00507523674
Al 4.753654119179999 7.1373355617200005 4.435677939980001
Al 0.01141144418 2.36595291172 9.19465832998
Al -0.00280595418 7.12892129328 5.09068985502
In 4.43831653896 4.754446450820001 7.13522093976
In 9.19545644396 0.01124515082 2.36328140976
Al 5.09278862604 -0.00182270082 7.12765378524
Al 2.37864188418 5.0779782943 4.76038472326
Al 7.13578178918 0.3347769943000001 -0.01155480674
Al 2.37182065582 4.4375565007 0.00204048674
In 4.76216819082 2.37915007828 5.07621334002
In -0.01064019418 7.13549120828 0.33322684002
In 0.00357720418 2.37252282672 4.43719531498
Al 5.077505771039999 4.76203918918 2.37667034024
In 0.33526309604 -0.00934346082 7.13565073024
Al 4.43793091396 0.00372439082 2.37127835476
In 2.3860904991800003 0.3206863193000001 4.75390515326
Al 4.75433395082 2.38571999328 0.31875032502
In 0.31998024104 4.75451842918 2.38466728524
In 7.12973181082 9.1957993207 4.75798612674
In 4.76148835918 7.1307656467200005 9.193140954979999
Al 9.19584206896 4.76196721082 7.12722399476
O 5.90378536315 3.720908338370001 6.23694228762
O 3.61567016799 8.47212006053 8.03606648486
O 8.36661680261 5.80556834967 1.47814595374
O 5.903483441249999 5.79261735143 8.02857347378
O 6.23876358844 5.90377161259 3.71787875269
O 8.039002762920001 3.61652935535 8.46922472277
O 1.4807805072799998 8.367178196649999 5.80349894863
O 8.031008916359998 5.90373493541 5.78912577591
O 3.72032683918 6.239301610920001 5.90150172345
O 8.47129125474 8.03871771272 3.61235884957
O 5.80613039006 1.48187233148 8.36541625323
O 5.79180729102 8.03132244488 5.90045137375
O 3.61203694685 5.79557730163 3.27494899238
O 5.90015214201 1.04436557947 1.47582479514
O 1.14920550739 3.71091729033 8.03374532626
O 3.61233886875 3.72386828857 1.48331780622
O 3.27705872156 3.612714027410001 5.79401252731
O 1.4768195470799996 5.89995628465 1.04266655723
O 8.035041802719999 1.14930744335 3.70839233137
O 1.48481339364 3.61275070459 3.72276550409
O 5.79549547082 3.2771840290800003 3.61038955655
O 1.0445310552599998 1.47776792728 5.89953243043
O 3.70969191994 8.034613308519999 1.14647502677
O 3.72401501898 1.4851631951200002 3.61143990625
O 1.13097697815 8.477249468370001 1.49395578762
O 8.37281007299 3.728918760530001 3.26412695486
O 3.62437412761 1.03418569967 6.23712634374
O 1.14557228625 1.03437453143 3.27262783378
O 1.49652091344 1.13238896259 8.476859142689998
O 3.26619437792 8.372870485350001 3.72623822277
O 6.23792041228 3.62397689665 1.03155941863
O 3.27309776136 1.14549211541 1.03318013591
O 8.47746674418 1.49610031092 1.12956219345
O 3.72904857974 3.26733506272 8.37133923957
O 1.03332200506 6.23821346148 3.62242975323
O 1.03389613602 3.27307962488 1.14450573375
O 8.384845331849998 1.03923617163 8.017935492379998
O 1.14301223701 5.78756687947 6.24776432514
O 5.89144818239 8.48229994033 3.2747649362599995
O 8.370250023749998 8.48211110857 6.23926344622
O 8.019301396559998 8.384096677409998 1.03503213731
O 6.24962793208 1.14361515465 5.785653057229999
O 3.27790189772 5.89250874335 8.48033186137
O 6.24272454864 8.37099352459 8.47871114409
O 1.03835556582 8.02038532908 8.382329086549998
O 5.786773730259999 6.249150577280001 1.14055204043
O 8.482500304939999 3.27827217852 5.88946152677
O 8.48192617398 6.24340601512 8.36738554625
