80   
   
Al 10.87687797295 7.932765e-06 1.1832274457249998
Al 10.87686915795 3.110200372765 1.183233165725
Ga 23.17889082295 1.7667765e-05 1.162589470725
Al 23.17888200795 3.1102101077650004 1.1625951907249998
Ga -0.06584906295 -2.667765e-06 4.659487579275
Ga -0.06585787795 3.110189772235 4.659493299275001
Ga 12.23616378705 7.067235e-06 4.638849604275
Ga 12.23615497205 3.110199507235 4.638855324275
Ga 4.72586714045 1.555099285265 1.193549293225
Ga 4.72585832545 4.665291725265 1.193555013225
Al 17.02787999045 1.555109020265 1.172911318225
Ga 17.027871175449995 4.665301460265 1.172917038225
Ga 6.08515295455 1.555098419735 4.6491714517750005
Al 6.08514413955 4.665290859735 4.649177171775
Ga 18.38716580455 1.555108154735 4.628533476775
Ga 18.38715698955 4.665300594735 4.628539196775001
In 9.32317341651 1.555101340715 4.004906481025
Ga 9.32316460151 4.665293780715 4.004912201025
Ga 21.62518626651 1.5551110757150002 3.984268506025
Ga 21.62517745151 4.665303515715 3.984274226025
Al 1.48784667849 1.555096364285 1.837814263975
In 1.48783786349 4.665288804285 1.837819983975
In 13.78985952849 1.555106099285 1.817176288975
Al 13.78985071349 4.665298539285 1.817182008975
In 3.1721713990100007 2.53215e-07 4.015222608525001
Al 3.1721625840100005 3.110192693215 4.015228328525001
In 15.47418424901 9.988215e-06 3.994584633525
Ga 15.47417543401 3.110202428215 3.994590353525001
In 7.63885751099 5.011785e-06 1.827492416475
Ga 7.638848695990002 3.1101974517850004 1.827498136475
Ga 19.94087036099 1.4746785e-05 1.806854441475
In 19.94086154599 3.1102071867850003 1.806860161475
O 9.52220464517 6.097455e-06 2.545217655675
O 9.52219583017 3.110198537455 2.545223375675
O 21.82421749517 1.5832455e-05 2.524579680675
O 21.82420868017 3.110208272455 2.524585400675
O 1.28882426483 -8.32455e-07 3.297497369325
O 1.28881544983 3.110191607545 3.297503089325
O 13.590837114830002 8.902545e-06 3.276859394325
O 13.590828299830001 3.110201342545 3.276865114325
O 3.3711938126700005 1.555097449955 2.555539503175
O 3.3711849976700003 4.665289889955 2.555545223175
O 15.67320666267 1.555107184955 2.534901528175
O 15.67319784767 4.665299624955 2.534907248175
O 7.43982628233 1.5551002550450002 3.2871812418249995
O 7.439817467330002 4.665292695044999 3.287186961825
O 19.74183913233 1.555109990045 3.266543266825
O 19.74183031733 4.665302430044999 3.266548986825
O 8.94520502315 4.150425e-06 5.201151460875
O 8.945196208149998 3.110196590425 5.201157180875
O 21.247217873150003 1.3885425e-05 5.180513485875
O 21.24720905815 3.110206325425 5.180519205875
O 1.86582388685 1.114575e-06 0.641563564125
O 1.86581507185 3.1101935545750004 0.641569284125
O 14.167836736850001 1.0849575e-05 0.620925589125
O 14.16782792185 3.1102032895750003 0.620931309125
O 2.7941941906500007 1.555095502925 5.211473308375
O 2.7941853756500006 4.6652879429250005 5.211479028375
O 15.096207040649997 1.555105237925 5.190835333375
O 15.096198225649998 4.665297677925 5.190841053375
O 8.01682590435 1.555102202075 0.631247436625
O 8.01681708935 4.665294642075 0.631253156625
O 20.31883875435 1.555111937075 0.610609461625
O 20.31882993935 4.6653043770750005 0.6106151816250001
O -1.05859742352 1.55509293773 4.3563915871
O -1.05860623852 4.665285377729999 4.3563973071
O 11.24341542648 1.55510267273 4.3357536121
O 11.24340661148 4.665295112729999 4.3357593321
O 11.869617518519998 1.55510476727 1.4863291579
O 11.86960870352 4.66529720727 1.4863348779
O 24.17163036852 1.55511450227 1.4656911829
O 24.17162155352 4.66530694227 1.4656969029
O 5.092413408980001 1.58523e-06 4.3460697396
O 5.09240459398 3.11019402523 4.3460754596
O 17.39442625898 1.132023e-05 4.3254317646
O 17.39441744398 3.11020376023 4.3254374846
O 5.71861550102 3.67977e-06 1.4966452854
O 5.71860668602 3.11019611977 1.4966510054
O 18.02062835102 1.341477e-05 1.4760073104
O 18.02061953602 3.11020585477 1.4760130304
