30   
   
In -0.00236648555 0.00291864265 1.98168010285
Al -0.01052678055 0.01298292765 8.81505976785
Al -0.01395410445 0.01720992735 11.68507922715
Al -0.00579380945 0.00714564235 4.85169956215
Al 2.517056389929268 1.4876157881086198 6.537788210673257
In 2.508896094929268 1.49768007310862 13.371167875673258
In 2.521789361029268 1.48177850280862 2.5744280049732584
Al 2.513629066029268 1.4918427878086198 9.407807669973256
Al -0.0308704810292685 2.9417538471913804 11.08879578502674
Al -0.0227101860292685 2.9316895621913805 4.255416120026741
Al -0.0261375099292685 2.9359165618913807 7.125435579326742
In -0.0179772149292685 2.925852276891381 0.2920559143267415
O 1.5313268025099998 0.01429155889 3.41823533551
O 1.7434657630899997 3.07420457716 3.41422556112
O -0.7797935381 1.33000407145 3.41407306087
O 0.7474531169099998 1.34932777284 10.24899822888
O -1.7966372518999998 3.06296914855 10.24405005913
O 3.5197022774899995 0.03639614111 10.25362466449
O 4.050749677989267 1.49898870434862 7.974343443333257
O 1.7556491685692683 0.1554979426186197 7.973869208943259
O 1.7396293373792675 2.81470121690862 7.970181168693258
O 3.283196582389268 2.81389634829862 1.1383470067032584
O 3.299216413579268 0.1546930740086197 1.1420350469532583
O 0.9880960729692684 1.4704055865686196 1.1378727723132585
O 1.5028228070307317 2.9531267634313805 12.52535101768674
O -0.7922777023892683 1.6096360017013809 12.524876783296742
O -0.8082975335792686 4.26883927599138 12.52118874304674
O 0.7352697114307317 4.268034407381381 5.689354581056741
O 0.7512895426207314 1.6088311330913805 5.69304262130674
O -1.5598307979892685 2.9245436456513807 5.688880346666742
