30   
   
Ga -0.0004127139182 0.00302215460444 2.0083160391634403
Ga -0.0018084889182 0.01324290960444 8.800326669163438
Ga -0.0023788360818 0.01741935539556 11.57570522083656
Ga -0.0009830610818 0.00719860039556 4.783694590836561
Ga 2.5100588047009027 1.4785552601334386 6.534531227242776
Ga 2.508663029700903 1.4887760151334386 13.326541857242775
Al 2.510884232537302 1.4725109509245584 2.5178991489158964
Ga 2.509488457537303 1.4827317059245586 9.309909778915896
Ga -0.0185181925373028 2.9256554290754413 11.059931041084106
Ga -0.0171224175373028 2.915434674075441 4.267920411084104
Ga -0.0176927647009028 2.9196111198665613 7.043298962757224
Ga -0.0162969897009028 2.9093903648665616 0.2512883327572239
O 3.4945876724216003 0.0248326297472 3.3965709853564
O 0.7637185917724002 1.3462701686732002 3.3941086187948
O -1.7652423366940002 3.0219532040796 3.3911452708488
O 1.7286474482276 3.0518962113268 10.1837215712052
O -0.781440063306 1.3477801959204 10.1858694091512
O 1.5416692175784 0.0240418602528 10.1882657846436
O 0.9660107510407028 1.4719327552761985 7.921970663435735
O 3.274190110391503 2.8218032742021983 7.920323806874136
O 3.2891200319251026 0.1481944196085986 7.924367038928135
O 1.7467529268467028 0.1292629368557986 1.132106569284536
O 1.731823005313103 2.802871791449398 1.128063337230536
O 4.054932286197503 1.4791334557817986 1.130459712722936
O -1.5625662461975025 2.9190329242182016 12.447370477277063
O 0.7456131131532971 4.268903443144201 12.445723620715464
O 0.7605430346868971 1.5952945885506011 12.449766852769464
O -0.7818240703915028 1.5763631057978011 5.657506383125864
O -0.7967539919251027 4.2499719603914015 5.653463151071864
O 1.5263552889592973 2.926233624723801 5.655859526564265
