40   
   
Al 0.0460989932621777 3.3320781355937465 13.635909988535428
Al 1.4599583701670669 2.513374746584983 2.3695221724131588
Ga 2.9144625001670668 -0.0025094684150167 2.3614461124131587
Al -1.4461507798329327 2.511800046584983 2.378734057413159
Al 2.9051428090707554 1.6793557265712695 -0.0068984734485863
Al 2.9239378465707557 1.6701663478212698 5.327081914051414
Al 0.014618362667067 -0.0071472946650167 4.148651459913159
Al -1.430410420929245 4.181412736571269 7.122363321551414
Al 0.0240937090707553 1.6655285215712698 7.1142872615514126
In 1.4756987290707553 4.182987436571269 7.113151436551414
Al 0.0335689682621777 3.338204388093746 10.079923063535425
Al 2.9364678715707555 1.6640400953212695 8.883068839051413
In 4.400447260762177 0.8208317468437467 11.840628581035425
Al 2.9459431307621777 3.336715961843747 11.848704641035427
Al 1.4943381107621776 0.8192570468437468 11.849840466035428
Al 0.033413400167067 -0.0163366734150167 9.48263184741316
O 4.304799267170754 0.8726937559212699 1.1966049386514137
O 2.9084753023707544 3.2879426023212694 1.2043579562514135
O 1.514934483170755 0.8711820439212699 1.2054483482514138
O 0.045692824667067 -0.0223404008650167 12.967499033913159
O 0.0024945062621777 3.3533974942937466 1.2610754895354273
O 1.5556064509707548 2.46151268722127 13.013545814451412
O 2.951930415770755 0.0462638408212699 13.005792796851415
O 4.345471234970755 2.4630243992212697 13.004702404851415
O 1.414430388862178 2.5407317961937466 5.949446088135427
O 0.0181064240621779 4.955980642593746 5.957199105735428
O -1.375434395137822 2.5392200841937465 5.958289497735428
O 2.917422233570756 1.6733519991212698 3.4779687130514136
O 0.021133975667067 -0.0103329459650167 5.997764660913159
O -1.3848825273378225 4.154055737493747 3.542439263935427
O 0.0114414374621777 1.7388068910937466 3.5346862463354274
O 1.4049822566621777 4.155567449493747 3.5335958543354278
O -1.475938401732933 4.208769785934983 10.702287379513159
O 0.036745893467067 1.5922502023349834 10.693888277113158
O 1.5464151142670672 4.210407473934983 10.69270701911316
O 0.0270533552621777 3.3413900393937466 8.230809862535427
O 2.9429834845707554 1.6608544440212698 10.732182040051415
O 4.445975242067067 0.7934746972349832 8.260704665313158
O 2.933290946867067 3.4099942808349835 8.26910376771316
O 1.4236217260670667 0.7918370092349832 8.270285025713159
