80   
   
Ga 7.011999994999999 2.3353178175 6.97817954
Ga 2.336230125 6.987078192500001 7.00265091
Al 6.98572528 7.009187702500001 2.32396925
Al 7.000266599999999 6.999250162500001 6.9877713
Ga 2.321688805 6.9970157325 2.33884886
Ga 6.997458674999999 2.3452553575 2.31437749
Ga 2.3479635199999995 2.3231458475 6.993059150000001
Ga 2.3334222 2.3330833875 2.3292571
Ga 6.99966050836 4.3551053605400005 4.65042215532
In 2.30934931836 9.016803275540001 0.01109147532
Al 6.98352344664 4.999337699460001 -0.01207541532
Ga 4.65998889274 6.998808700220001 4.3461715406
Ga 0.02222713274 2.31276684522 9.0152614406
Al -0.00206996274 6.98528522478 4.9953282294
Ga 4.356960579699999 4.66037031104 6.99142703848
Ga 9.018189129699998 0.01854747604 2.30315361848
Ga 5.0030029353 -0.00190664604 6.97981165152
Ga 2.33402829164 4.977228189460001 4.6666062446800005
Ga 6.99525684164 0.33540535446 -0.02166717532
Ga 2.32108271336 4.352870930540001 0.00149971532
Ga 4.67369990726 2.33352484978 4.9708568594
Ga -0.01661128274 6.99522276478 0.3315261794
Al 0.00768581274 2.32270438522 4.3514593906000005
Al 4.976728220299999 4.67196323896 2.32560136152
Al 0.3389664603 -0.01407861604 6.99469126152
Al 4.354152654699999 0.00637550604 2.31803322848
Ga 2.34576168664 0.31329584446 4.65701448468
Al 4.65915858726 2.34346238978 0.3070548094
Ga 0.3126917453 4.65979126896 2.34048097152
In 6.98792711336 9.01903770554 4.66001391532
Ga 4.674530212739999 6.98887116022 9.0099735906
Al 9.020997054699999 4.67254228104 6.97654742848
O 5.79330792595 3.64925028411 6.107958329520001
O 3.5483045592699995 8.30360356847 7.878281873119999
O 8.198949812729998 5.69899175093 1.44060088968
O 5.79365970205 5.67898827149 7.865729907679999
O 6.116037757639999 5.791474576160001 3.63946493718
O 7.889888821839999 3.54742617128 8.293068209020001
O 1.45223993276 8.20021465812 5.69274995618
O 7.876055487759999 5.79171846944 5.66728789762
O 3.64991354601 6.11627516758 5.7840630761
O 8.302558430889999 7.8868557185 3.53416498386
O 5.70272833051 1.4524822807 8.19316087214
O 5.679021692589999 7.875220708219999 5.7811820679000006
O 3.54038087405 5.68308326589 3.20907007048
O 5.785384240729999 1.0287299815299995 1.43874652688
O 1.13473898727 3.63334179907 7.87642751032
O 3.54002909795 3.65334527851 1.45129849232
O 3.217651042359999 3.5408589738400007 5.67756346282
O 1.44379997816 5.78490737872 1.02396019098
O 7.881448867239999 1.13211889188 3.62427844382
O 1.45763331224 3.5406150805600003 3.64974050238
O 5.68377525399 3.21605838242 3.5329653239
O 1.0311303691099998 1.4454778315000003 5.7828634161400005
O 3.63096046949 7.879851269299999 1.12386752786
O 3.65466710741 1.45711284178 3.5358463321
O 1.10299673595 8.310948199110001 1.46862764952
O 8.209533109269998 3.66178073347 3.19000845312
O 3.56118805273 1.0129498959299998 6.10969078968
O 1.12681530205 1.01282149649 3.20721570768
O 1.47827599764 1.10543272116 8.30855483718
O 3.1995776318399995 8.20912408628 3.65373752902
O 6.113468482759999 3.55839182312 1.00447653618
O 3.2092110877599995 1.12555169444 1.00877369762
O 8.311142096009998 1.47445233258 1.0957896561
O 3.66479667089 3.2008138635 8.203254883859998
O 1.0124171405099998 6.1141801957 3.55383019214
O 1.01217729259 3.20905393322 1.1226678679
O 8.230692064049999 1.02138535089 7.848400750479998
O 1.12415569073 5.67055281653 6.127019946880001
O 5.77250074727 8.319383654070004 3.20733761032
O 8.206873497949998 8.319512053509998 6.10981269232
O 7.855412802359998 8.22690082884 1.00847356282
O 6.13411116816 1.12320946372 5.66329087098
O 3.2202203172399995 5.77394172688 8.312551863819998
O 6.124477712239999 8.206781855560001 8.308254702380001
O 1.0225467039899998 7.85788121742 8.2212387439
O 5.6688921291100005 6.1315196865 1.11377351614
O 8.32127165949 3.2181533543 5.76319820786
O 8.321511507409998 6.1232796167800005 8.194360532100001
