60   
   
In -0.00529016007 0.00697767447 2.16942298569
Ga 5.48606281493 0.07806959947 2.18265676569
In -0.02304237507 0.03039268947 9.44936589069
Ga 5.46831059993 0.10148461447 9.46259967069
In -0.03021426993 0.03985235553 12.39046282431
Ga 5.46113870507 0.11094428053 12.40369660431
In -0.01246205493 0.01643734053 5.11051991931
Ga 5.47889092007 0.08752926553 5.12375369931
In 2.7081005598699 1.64317846493424 7.02424509086304
In 8.199453534869901 1.71427038993424 7.0374788708630405
In 2.6903483448698995 1.66659347993424 14.30418799586304
In 8.181701319869902 1.73768540493424 14.31742177586304
In 2.7186808800099 1.62922311599424 2.68539911948304
In 8.2100338550099 1.70031504099424 2.69863289948304
In 2.7009286650099 1.65263813099424 9.96534202448304
In 8.1922816400099 1.72373005599424 9.97857580448304
In -0.0698535550099001 3.20829223900576 11.86584798051696
In 5.4214994199901 3.27938416400576 11.87908176051696
In -0.0521013400099001 3.18487722400576 4.58590507551696
In 5.4392516349901 3.25596914900576 4.59913885551696
In -0.0592732348699001 3.19433689006576 7.52700200913696
In 5.4320797401301 3.26542881506576 7.54023578913696
In -0.0415210198699001 3.17092187506576 0.24705910413696
In 5.4498319551301 3.24201380006576 0.26029288413696
O 1.6824606088 0.0336038204 3.64404745674
O 7.1738135838 0.1046957454 3.65728123674
O 1.84868146696 3.3268617524 3.63399346518
O 7.3400344419599985 3.3979536774 3.64722724518
O -0.8734386432600001 1.4653422747 3.63323472558
O 4.61791433174 1.5364341997 3.64646850558
O 0.8001458580399998 1.5106536026 10.91725363482
O 6.29149883304 1.5817455276 10.93048741482
O -1.96908700674 3.3010811553 10.90477859442
O 3.52226596826 3.3721730803 10.918012374420002
O 3.7733879361999993 0.0843181346 10.92907213326
O 9.2647409112 0.1554100596 10.94230591326
O 4.3958513287399 1.66980461086424 8.498869561913038
O 9.887204303739901 1.74089653586424 8.51210334191304
O 1.8777404318999 0.17237721786424 8.497454280353038
O 7.369093406899899 0.24346914286424 8.51068806035304
O 1.8399520766798996 3.10154306516424 8.48805683075304
O 7.331305051679901 3.17263499016424 8.50129061075304
O 3.5490410079799 3.1000243630642403 1.21218992999304
O 9.0403939829799 3.17111628806424 1.22542370999304
O 3.5868293631999 0.17085851576424 1.22158737959304
O 9.0781823381999 0.24195044076424 1.23482115959304
O 1.0309301111399 1.60259697006424 1.2107746484330402
O 6.522283086139899 1.67368889506424 1.22400842843304
O 1.6178972138600995 3.23491838493576 13.34047245156696
O 7.109250188860099 3.30601030993576 13.35370623156696
O -0.9002136829799001 1.7374909919357602 13.33905717000696
O 4.5911392920201 1.80858291693576 13.35229095000696
O -0.9380020381998998 4.66665683923576 13.32965972040696
O 4.5533509368001 4.73774876423576 13.34289350040696
O 0.7710868931000999 4.66513813713576 6.053792819646961
O 6.2624398681001 4.73623006213576 6.067026599646961
O 0.8088752483200999 1.73597228983576 6.06319026924696
O 6.3002282233201 1.80706421483576 6.076424049246961
O -1.7470240037399003 3.16771074413576 6.052377538086961
O 3.7443289712601 3.2388026691357603 6.065611318086961
