80   
   
In -0.0087167275 -0.0436202925 6.1777645125
Ga -0.0261501825 -0.1308608775 18.5332935375
Ga 5.0699459625 2.8442551225 6.205267042499999
In 5.0525125075 2.7570145375 18.5607960675
In 3.3639215275 -0.0656262325 6.1824899275
In 3.3464880725 -0.1528668175 18.5380189525
In 1.6973077075 2.8662610625 6.2005416275
Ga 1.6798742525 2.7790204775 18.5560706525
In 0.0 0.0 0.0
In -0.017433455 -0.087240585 12.355529025
In 5.07866269 2.887875415 0.02750253
Ga 5.061229235 2.80063483 12.383031554999999
Ga 3.372638255 -0.02200594 0.004725415
In 3.3552048 -0.109246525 12.360254439999999
Ga 1.706024435 2.909881355 0.022777115
Ga 1.68859098 2.82264077 12.37830614
In 0.0087771942295001 1.925251344795 3.1024905002895
Ga -0.0086562607704999 1.838010759795 15.458019525289501
In -1.6578366257705 4.857138639795 3.1205422002895
In -1.6752700807705 4.769898054795 15.476071225289498
Ga 3.381415449229499 1.903245404795 3.1072159152895
Al 3.363981994229499 1.816004819795 15.462744940289497
Ga 1.7148016292294994 4.835132699795 3.1252676152895
Al 1.6973681742294997 4.747892114795 15.480796640289501
Ga 1.6798137857704998 0.897389425205 9.2758156397105
Ga 1.6623803307704996 0.810148840205 21.631344664710497
In 0.0131999657704999 3.829276720205 9.293867339710497
In -0.0042334892295001 3.742036135205 21.649396364710498
Al 5.0524520407705005 0.875383485205 9.280541054710497
In 5.0350185857705005 0.788142900205 21.636070079710496
In 3.3858382207705007 3.807270780205 9.2985927547105
In 3.3684047657705007 3.720030195205 21.654121779710497
O 0.0059198509550001 1.9109526129135 5.127561707487
O -0.0115136040449999 1.8237120279135 17.483090732487003
O -1.660693969045 4.8428399079135 5.145613407487
O -1.678127424045 4.7555993229135 17.501142432486994
O 3.3785581059549994 1.8889466729135 5.132287122487
O 3.361124650954999 1.8017060879135 17.487816147487003
O 1.7119442859549994 4.8208339679135 5.150338822487
O 1.6945108309549994 4.7335933829135 17.505867847486996
O 1.6826711290449998 0.9116881570865 7.250744432512999
O 1.6652376740449997 0.8244475720865 19.606273457512998
O 0.0160573090449999 3.8435754520865 7.268796132512999
O -0.0013761459550001 3.7563348670865 19.624325157513
O 5.0553093840450005 0.8896822170865 7.255469847512998
O 5.037875929045001 0.8024416320865 19.610998872512997
O 3.3886955640450007 3.8215695120865 7.273521547512998
O 3.371262109045001 3.7343289270865 19.629050572513
O 1.6769564424959995 0.8830906933235 11.300886846908002
O 1.6595229874959998 0.7958501083235 23.656415871908
O 0.0103426224959999 3.8149779883235 11.318938546908
O -0.0070908325040001 3.7277374033235 23.674467571908
O 5.049594697496 0.8610847533235 11.305612261908
O 5.0321612424960005 0.7738441683235 23.661141286908
O 3.3829808774960006 3.7929720483235 11.323663961908
O 3.3655474224960007 3.7057314633235 23.679192986908
O 0.0116345375040001 1.9395500766765 1.077419293092
O -0.0057989174959999 1.8523094916765 13.432948318092
O -1.654979282496 4.8714373716765005 1.095470993092
O -1.672412737496 4.7841967866765 13.451000018092
O 3.384272792503999 1.9175441366765 1.082144708092
O 3.366839337503999 1.8303035516765 13.437673733092
O 1.7176589725039997 4.849431431676501 1.100196408092
O 1.7002255175039993 4.7621908466765 13.455725433092
O -0.00435836375 -0.02181014625 3.08888225625
O -0.02179181875 -0.10905073125 15.444411281249996
O 5.07430432625 2.86606526875 3.11638478625
O 5.05687087125 2.77882468375 15.47191381125
O 3.36827989125 -0.04381608625 3.09360767125
O 3.35084643625 -0.13105667125 15.44913669625
O 1.70166607125 2.88807120875 3.11165937125
O 1.68423261625 2.80083062375 15.467188396249997
O -0.01307509125 -0.06543043875 9.26664676875
O -0.03050854625 -0.15267102375 21.62217579375
O 5.06558759875 2.82244497625 9.29414929875
O 5.04815414375 2.73520439125 21.64967832375
O 3.35956316375 -0.08743637875 9.27137218375
O 3.34212970875 -0.17467696375 21.62690120875
O 1.69294934375 2.84445091625 9.289423883749999
O 1.67551588875 2.75721033125 21.64495290875
