80   
   
Al 10.795271866825 4.537935e-06 1.192914785155
Al 10.795262886825 3.0967224579350003 1.192929705155
Al 23.011975241825 1.0402935e-05 1.1840404801549995
Al 23.011966261825 3.096728322935 1.184055400155
In -0.0893563018250002 -2.542935e-06 4.656657389845
Al -0.0893652818250002 3.096715377065 4.656672309845
In 12.127347073174999 3.322065e-06 4.647783084845
Al 12.127338093174998 3.096721242065 4.647798004845
In 4.686915689325 1.548360565435 1.197359397655
Al 4.686906709325 4.6450784854350005 1.1973743176549998
Al 16.903619064325003 1.5483664304350002 1.188485092655
In 16.903610084325003 4.645084350435001 1.1885000126549998
In 6.018990895675 1.548359349565 4.652227697345
Al 6.018981915674999 4.645077269565001 4.652242617345
Ga 18.235694270675 1.548365214565 4.643353392345
In 18.235685290675 4.6450831345650005 4.643368312345
Ga 9.237842610715 1.548361237645 4.011438454775
Ga 9.237833630714999 4.645079157645 4.011453374775
Ga 21.454545985715 1.548367102645 4.002564149775
Ga 21.454537005715 4.645085022645 4.002579069775
In 1.468063974285 1.5483586773550002 1.838148640225
Al 1.468054994285 4.645076597355001 1.838163560225
In 13.684767349285002 1.548364542355 1.829274335225
Ga 13.684758369285 4.645082462355 1.829289255225
Ga 3.1294954132150004 -6.54855e-07 4.015868147275
Ga 3.1294864332150008 3.096717265145 4.015883067275
Al 15.346198788214998 5.210145e-06 4.006993842275
Ga 15.346189808214994 3.0967231301450004 4.007008762275
Al 7.576420151785 2.649855e-06 1.833704027725
Ga 7.576411171784998 3.096720569855 1.833718947725
Ga 19.793123526785 8.514855e-06 1.824829722725
Al 19.793114546785 3.096726434855 1.824844642725
O 9.442999418155 3.159165e-06 2.552802061525
O 9.442990438154999 3.096721079165 2.552816981525
O 21.659702793155002 9.024165e-06 2.543927756525
O 21.659693813155002 3.0967269441650003 2.543942676525
O 1.2629161468449996 -1.164165e-06 3.296770113475
O 1.2629071668449996 3.096716755835 3.2967850334749995
O 13.479619521845 4.700835e-06 3.287895808475
O 13.479610541845 3.096722620835 3.2879107284749995
O 3.334643240655 1.548359186665 2.557246674025
O 3.334634260655 4.645077106665001 2.557261594025
O 15.551346615655001 1.548365051665 2.548372369025
O 15.551337635655 4.645082971665 2.548387289025
O 7.371263344344999 1.548360728335 3.292340420975
O 7.371254364344998 4.645078648335001 3.2923553409749995
O 19.587966719344998 1.5483665933350002 3.283466115975
O 19.587957739344997 4.645084513335 3.2834810359749995
O 8.856346167224999 1.452975e-06 5.206607322525
O 8.856337187224998 3.0967193729750004 5.206622242525
O 21.073049542225 7.317975e-06 5.197733017525
O 21.073040562225 3.0967252379750003 5.197747937525
O 1.849569397775 5.42025e-07 0.6429648524749999
O 1.849560417775 3.096718462025 0.6429797724749999
O 14.066272772775 6.407025e-06 0.6340905474749999
O 14.066263792775 3.096724327025 0.634105467475
O 2.747989989725 1.548357480475 5.211051935025
O 2.7479810097250006 4.645075400475 5.211066855025
O 14.964693364725 1.548363345475 5.202177630025
O 14.964684384724999 4.645081265475 5.202192550025
O 7.957916595275002 1.5483624345250002 0.638535159975
O 7.957907615275 4.645080354525001 0.6385500799749999
O 20.174619970275003 1.548368299525 0.6296608549749999
O 20.174610990275003 4.645086219525001 0.6296757749749999
O -1.07365301933 1.54835610805 4.35279769742
O -1.07366199933 4.645074028050001 4.35281261742
O 11.14305035567 1.54836197305 4.34392339242
O 11.143041375669998 4.64507989305 4.34393831242
O 11.77955960433 1.54836380695 1.49678939758
O 11.77955062433 4.645081726950001 1.49680431758
O 23.99626297933 1.5483696719500002 1.48791509258
O 23.99625399933 4.64508759195 1.48793001258
O 5.03470315817 8.055e-08 4.34835308492
O 5.0346941781700005 3.09671800055 4.348368004919999
O 17.25140653317 5.94555e-06 4.33947877992
O 17.25139755317 3.0967238655500005 4.339493699919999
O 5.67121240683 1.91445e-06 1.50121909008
O 5.67120342683 3.09671983445 1.50123401008
O 17.88791578183 7.77945e-06 1.49234478508
O 17.887906801829995 3.09672569945 1.49235970508
