80   
   
Al 1.57498366324 7.19181951116 6.32330225615
Al 6.495355668239999 7.17517669616 6.31094027615
Al 3.39387400518 1.2490512748599998 1.7803284084700002
Al 8.31424601018 1.2324084598599998 1.76796642847
Al 0.93942358462 2.96485059022 1.78534872667
Al 5.859795589619999 2.94820777522 1.7729867466700002
Al 4.0294340838 5.4760201958 6.31828193795
Al 8.9498060888 5.4593773808 6.30591995795
Al 0.8994298211549999 5.559003428055 -0.00599359662
In 5.819801826155 5.542360613055 -0.01835557662
Ga 4.060573118845 2.879816851945 4.53024508162
Al 8.980945123845 2.863174036945 4.51788310162
Al 1.595162625865 1.3328118483250002 4.53748331722
Al 6.515534630865 1.3161690333250002 4.52512133722
Al 3.387314244135 7.111212761675 9.07148689778
Al 8.307686249135001 7.094569946675 9.05912491778
Al 0.84992577201 0.25598896065 9.07338482163
Al 5.77029777701 0.23934614565 9.06102284163
Al 4.132506150129999 8.18802524069 4.517415955910001
Al 9.05287815513 8.171382425689998 4.50505397591
Al 1.65982680083 4.47708783899 4.526125141910001
Al 6.58019880583 4.46044502399 4.51376316191
Al 3.3226051213100005 3.96692636235 9.06467563563
Al 8.24297712631 3.95028354735 9.052313655630002
Al 3.392599659625 1.319794645445 7.140303577910001
Al 8.312971664625001 1.303151830445 7.1279415979100005
Al 1.580303316195 7.122012919975 2.59857645811
Al 6.500675321195 7.105370104975 2.58621447811
Al 4.035208040274999 5.541459379495 2.59346420551
Al 8.955580045275001 5.524816564495 2.58110222551
Al 0.937694935545 2.9003481859250004 7.145415830510001
Al 5.858066940545 2.8837053709250005 7.1330538505100005
O 4.118053177565 5.645814535225 8.09856173737
O 9.038425182565 5.629171720225 8.08619975737
O 0.8596142714150001 2.797096348155 3.5662786694100004
O 5.779986276415 2.780453533155 3.5539166894100003
O 3.3152004507750004 1.419411469995 3.5610285152100003
O 8.235572455775001 1.402768654995 3.54866653521
O 1.6624669982050002 7.023499413384999 8.10381189157
O 6.582839003204999 7.006856598384999 8.09144991157
O 2.597586950325 0.070611794065 5.707746328570001
O 7.517958955324999 0.053968979065 5.69538434857
O 2.368214263615 8.369551203074998 1.1603625887700002
O 7.288586268615 8.352908388074999 1.14800060877
O 4.814714372575 4.286950827315 1.15695112257
O 9.735086377575 4.270308012315 1.14458914257
O 0.151086841365 4.153212169825 5.71115779477
O 5.071458846364999 4.136569354825 5.69879581477
O 0.100006738795 6.990896070815 1.09431367733
O 5.020378743795 6.974253255815 1.08195169733
O 4.865434892265 1.449183657045 5.62843974033
O 9.785806897265 1.432540842045 5.6160777603300005
O 2.409621561145 2.759245647765 5.63373586173
O 7.329993566145002 2.742602832765 5.62137388173
O 2.555820069915 5.680834080095001 1.08901755593
O 7.476192074914999 5.664191265095001 1.07665557593
O 4.820648921149999 7.04528242291 5.779236878680001
O 9.74102092615 7.02863960791 5.76687489868
O 0.14555682353 1.39497425217 1.2523969758000002
O 5.06592882853 1.37833143717 1.2400349958
O 2.61056980093 2.82363920277 1.2452391828000002
O 7.530941805929999 2.80699638777 1.2328772028
O 2.3556359437500003 5.616617472310001 5.78639467168
O 7.2760079487499985 5.599974657310001 5.77403269168
O 1.800543692085 1.4354852516650003 7.8619269424
O 6.720915697085 1.4188424366650003 7.8495649624
O 3.175910164675 7.007144597895 3.3123386529600003
O 8.096282169674998 6.990501782895 3.29997667296
O 0.7111811269750001 5.663008256595 3.3194389869600003
O 5.631553131975 5.646365441595 3.30707700696
O 4.265272729785 2.779621592965 7.8548266084
O 9.185644734785 2.762978777965 7.8424646284
O 4.13368592715 -0.00077663541 8.16590649582
O 9.05405793215 -0.01741945041 8.15354451582
O 0.8442961568499999 8.443760379410001 3.62611997318
O 5.76466816185 8.42711756441 3.613757993180001
O 3.29034196229 4.22591422877 3.62280044138
O 8.210713967290001 4.20927141377 3.61043846138
O 1.68764012171 4.21706951523 8.16922602762
O 6.60801212671 4.20042670023 8.156864047620001
