80   
   
In 7.123368155000001 2.37266192 7.102026285
In 2.37276926 7.105978655 7.11918376
Al 7.105333065000001 7.12216382 2.36734918
In 7.114915920000001 7.114630455 7.109382525
Al 2.363186405 7.11351202 2.377150415
Al 7.113785300000001 2.380195285 2.35999294
Al 2.381221495 2.36401012 7.11182752
Al 2.37163864 2.371543485 2.369794175
Ga 7.114925361980001 4.424959009620001 4.734187508180001
In 2.35474361198 9.16580910962 0.00931163818
In 7.104193003020001 5.077400095380001 -0.00684538818
Al 4.73839952836 7.11458350632 4.420808202540001
In 0.01428795836 2.35642980632 9.16528654254
Al -0.00244386336 7.10490716868 5.07552597246
Ga 4.425602734620001 4.7387319651 7.1112715064800005
Al 9.16661877462 0.0129485951 2.3520806864800003
Ga 5.078986915380001 -0.0020599251 7.102582298520001
Ga 2.3716291980200004 5.061214930380001 4.74498919182
In 7.112645238020001 0.33543156038 -0.01420162818
Al 2.36319584698 4.423840574620001 0.00195539818
In 4.7481550316400005 2.37159043368 5.058368497460001
Al -0.01202671836 7.11244053368 0.33349262746
Ga 0.00470510336 2.36396317132 4.42325319754
Al 5.06095182538 4.747441974899999 2.36790519352
Al 0.3368402553800001 -0.0107117251 7.11238353352
Ga 4.42447211462 0.0042967951 2.36188192148
Ga 2.3800814330200004 0.31924639538 4.73763295182
Al 4.73857217664 2.37912379868 0.31633515246
In 0.3188051653800001 4.738790174899999 2.37770642852
Al 7.106473126980001 9.16692754462 4.741543748180001
Al 4.74798238336 7.107050141319999 9.16284154754
In 9.16774939462 4.7473837651 7.10147027148
O 5.886224916390001 3.70906385149 6.215146796920001
O 3.605145438070001 8.44404697725 8.01021216744
O 8.338873150130002 5.788594433749999 1.47122413036
O 5.886142895410001 5.773729587509999 8.00135865528
O 6.21870943913 5.8855010535700005 3.70453259307
O 8.015396511089998 3.60507586857 8.43934967851
O 1.47634574171 8.33938834463 5.78568561129
O 8.005934708069999 5.885469583229999 5.76837386713
O 3.709152096 6.21888705292 5.88210816891
O 8.443520945240001 8.01413503728 3.5988968745500003
O 5.79016335936 1.4767733529199998 8.336335929849998
O 5.7735499994 8.00563940688 5.880600776690001
O 3.6003296436100003 5.777110088509999 3.26402990308
O 5.881409121930001 1.0421269627499998 1.46896453256
O 1.14768140987 3.69757950625 8.00795256964
O 3.6004116645900006 3.71244435249 1.47781804472
O 3.26784512087 3.60067288643 5.77464410693
O 1.4711580489100002 5.88109807143 1.03982702149
O 8.01020881829 1.14678559537 3.693491088710001
O 1.4806198519300002 3.60070435677 3.71080283287
O 5.777402464000001 3.26728688708 3.59706853109
O 1.04303361476 1.4720389027199998 5.880279825450001
O 3.69639120064 8.00940058708 1.14284077015
O 3.7130045606 1.48053453312 3.5985759233100003
O 1.12604316639 8.44991395149 1.49027092692
O 8.346161478070002 3.71826360725 3.25102134744
O 3.61476158013 1.03044073375 6.215702470360001
O 1.14286561541 1.03064261751 3.26177030528
O 1.49459786913 1.12734735357 8.449010933070001
O 3.25521476109 8.34592596857 3.71447380851
O 6.21736178171 3.61360497463 1.02649479129
O 3.26265742807 1.14238261323 1.02878551713
O 8.450168136 1.49310368292 1.12291734891
O 3.7194093752400006 3.25598133728 8.34337521455
O 1.02998160936 6.21762345292 3.61146005985
O 1.0302727194 3.262552436879999 1.14101242669
O 8.360511393610002 1.03625998851 7.98890577308
O 1.14039308193 5.76791033275 6.228155352560001
O 5.87179297987 8.45573320625 3.26347422964
O 8.343688944590001 8.455531322489998 6.21740639472
O 7.991956690869999 8.35882658643 1.0301657669300002
O 6.231339798910001 1.14024797143 5.76470289149
O 3.26919277829 5.872568965369999 8.45268190871
O 6.22389713193 8.34379132677 8.45039118287
O 1.036386424 7.9930702570799985 8.356259351090001
O 5.76714518476 6.23019260272 1.13580148545
O 8.45657295064 3.26855048708 5.86771664015
O 8.4562818406 6.22362150312 8.338164273310001
