80   
   
Al 10.78109262317 3.4137e-06 1.20365259633
Al 10.78108430317 3.1142108937 1.20366696633
Al 22.98954550317 8.1637e-06 1.19354936633
Al 22.98953718317 3.1142156437 1.1935637363299998
Al -0.1160106931700001 -3.0737e-06 4.70251945367
Al -0.1160190131700002 3.1142044063 4.7025338236700005
Ga 12.092442186829999 1.6763e-06 4.69241622367
Ga 12.09243386683 3.1142091563 4.69243059367
Ga 4.67686202317 1.5571047787 1.2087113963299998
In 4.67685370317 4.6713122587 1.20872576633
Al 16.885314903170002 1.5571095287 1.19860816633
Ga 16.885306583170003 4.6713170087 1.1986225363299998
In 5.98821158683 1.5571030413 4.69747502367
Al 5.98820326683 4.6713105213 4.69748939367
Al 18.19666446683 1.5571077913 4.68737179367
Ga 18.19665614683 4.6713152713 4.68738616367
In 9.20855224038 1.55710470949 4.05007521065
Ga 9.208543920379999 4.67131218949 4.05008958065
Ga 21.41700512038 1.55710945949 4.03997198065
Al 21.41699680038 4.67131693949 4.03998635065
In 1.45652136962 1.5571031105100002 1.85611120935
Ga 1.4565130496199998 4.67131059051 1.85612557935
In 13.66497424962 1.5571078605100002 1.84600797935
In 13.66496592962 4.67131534051 1.84602234935
In 3.1043299603800003 -1.40551e-06 4.05511964065
In 3.10432164038 3.11420607449 4.05513401065
Al 15.312782840379997 3.34449e-06 4.045016410650001
Al 15.31277452038 3.11421082449 4.04503078065
Al 7.56075196962 1.74551e-06 1.85105240935
Ga 7.560743649620002 3.11420922551 1.85106677935
In 19.76920484962 6.49551e-06 1.84094917935
In 19.76919652962 3.11421397551 1.84096354935
O 9.421937426609999 2.00108e-06 2.57705692615
O 9.42192910661 3.11420948108 2.57707129615
O 21.63039030661 6.75108e-06 2.56695369615
O 21.63038198661 3.11421423108 2.56696806615
O 1.24314450339 -1.66108e-06 3.3291151238499994
O 1.24313618339 3.1142058189200004 3.32912949385
O 13.45159738339 3.08892e-06 3.3190118938499995
O 13.45158906339 3.1142105689200004 3.31902626385
O 3.31770682661 1.55710336608 2.58211572615
O 3.31769850661 4.67131084608 2.58213009615
O 15.526159706609997 1.55710811608 2.57201249615
O 15.52615138661 4.67131559608 2.57202686615
O 7.347366783390002 1.55710445392 3.3240706938499995
O 7.34735846339 4.671311933919999 3.32408506385
O 19.55581966339 1.55710920392 3.31396746385
O 19.55581134339 4.67131668392 3.31398183385
O 8.820458009299998 4.135e-08 5.25704880215
O 8.8204496893 3.11420752135 5.25706317215
O 21.0289108893 4.79135e-06 5.24694557215
O 21.0289025693 3.11421227135 5.24695994215
O 1.8446239207 2.9865e-07 0.64912324785
O 1.8446156007 3.11420777865 0.64913761785
O 14.0530768007 5.04865e-06 0.63902001785
O 14.0530684807 3.11421252865 0.63903438785
O 2.7162274093000005 1.5571014063500002 5.26210760215
O 2.7162190893000004 4.67130888635 5.26212197215
O 14.9246802893 1.5571061563500002 5.25200437215
O 14.9246719693 4.67131363635 5.25201874215
O 7.948846200700002 1.55710641365 0.64407881785
O 7.9488378807 4.67131389365 0.64409318785
O 20.1572990807 1.55711116365 0.63397558785
O 20.1572907607 4.67131864365 0.63398995785
O -1.09789496433 1.55710048237 4.39575930512
O -1.0979032843299998 4.671307962369999 4.39577367512
O 11.11055791567 1.55710523237 4.38565607512
O 11.11054959567 4.67131271237 4.38567044512
O 11.76296857433 1.55710733763 1.51042711488
O 11.762960254329998 4.67131481763 1.51044148488
O 23.97142145433 1.55711208763 1.50032388488
O 23.97141313433 4.67131956763 1.50033825488
O 5.006335635669999 -8.8263e-07 4.39070050512
O 5.006327315669999 3.11420659737 4.39071487512
O 17.214788515669998 3.86737e-06 4.38059727512
O 17.214780195669995 3.11421134737 4.38061164512
O 5.65874629433 1.22263e-06 1.51547154488
O 5.65873797433 3.11420870263 1.51548591488
O 17.86719917433 5.97263e-06 1.50536831488
O 17.86719085433 3.11421345263 1.50538268488
