80   
   
In 10.82088505518 2.86349e-06 1.2360528087799998
Al 10.82087963518 3.20208695349 1.23605387878
Ga 23.09788227518 7.67349e-06 1.2067945787799998
Ga 23.09787685518 3.20209176349 1.2067956487799998
Al -0.19708499518 -5.41349e-06 4.89395013122
Al -0.19709041518 3.20207867651 4.89395120122
Ga 12.07991222482 -6.0349e-07 4.86469190122
In 12.079906804819998 3.20208348651 4.86469297122
Ga 4.682383735179999 1.60104250349 1.2506824587799998
Ga 4.68237831518 4.803126593490001 1.2506835287799998
Al 16.959380955180002 1.60104731349 1.22142422878
In 16.95937553518 4.803131403490001 1.2214252987799998
In 5.94141090482 1.60103903651 4.87932155122
Al 5.94140548482 4.80312312651 4.87932262122
Al 18.21840812482 1.60104384651 4.85006332122
Ga 18.21840270482 4.80312793651 4.85006439122
In 9.19085870026 1.60104104125 4.20064752619
Al 9.19085328026 4.80312513125 4.20064859619
In 21.46785592026 1.60104585125 4.17138929619
In 21.46785050026 4.80312994125 4.17139036619
In 1.43293593974 1.60104049875 1.92935648381
In 1.43293051974 4.80312458875 1.92935755381
Ga 13.70993315974 1.60104530875 1.90009825381
In 13.70992773974 4.80312939875 1.90009932381
In 3.0523628002600005 -3.40875e-06 4.21527610619
In 3.0523573802600006 3.20208068125 4.21527717619
In 15.32936002026 1.40125e-06 4.18601787619
In 15.32935460026 3.20208549125 4.18601894619
In 7.571437259739999 8.5875e-07 1.91472683381
Ga 7.57143183974 3.20208494875 1.91472790381
In 19.84843447974 5.66875e-06 1.88546860381
In 19.84842905974 3.20208975875 1.88546967381
O 9.43062954202 7.6155e-07 2.66740057508
O 9.43062412202 3.20208485155 2.66740164508
O 21.70762676202 5.57155e-06 2.63814234508
O 21.70762134202 3.20208966155 2.63814341508
O 1.19317051798 -3.31155e-06 3.4626023649199995
O 1.19316509798 3.20208077845 3.46260343492
O 13.47016773798 1.49845e-06 3.43334413492
O 13.470162317980002 3.20208558845 3.43334520492
O 3.29212822202 1.60104040155 2.68203022508
O 3.29212280202 4.80312449155 2.68203129508
O 15.56912544202 1.60104521155 2.65277199508
O 15.56912002202 4.80312930155 2.65277306508
O 7.331666417980002 1.60104113845 3.4479737849199994
O 7.331660997980002 4.80312522845 3.44797485492
O 19.60866363798 1.60104594845 3.4187155549199995
O 19.60865821798 4.80313003845 3.41871662492
O 8.779947206300001 -2.53405e-06 5.45731181925
O 8.7799417863 3.20208155595 5.45731288925
O 21.0569444263 2.27595e-06 5.42805358925
O 21.0569390063 3.20208636595 5.42805465925
O 1.8438528537 -1.595e-08 0.6726911207499999
O 1.8438474337 3.20208407405 0.67269219075
O 14.1208500737 4.79405e-06 0.64343289075
O 14.1208446537 3.20208888405 0.6434339607499999
O 2.6414458863 1.6010371059500002 5.47194146925
O 2.6414404663 4.80312119595 5.47194253925
O 14.9184431063 1.60104191595 5.44268323925
O 14.9184376863 4.80312600595 5.44268430925
O 7.9823487537 1.60104443405 0.6580625407499999
O 7.982343333700002 4.80312852405 0.65806361075
O 20.2593459737 1.6010492440500002 0.62880431075
O 20.2593405537 4.80313333405 0.6288053807499999
O -1.179220211 1.60103659576 4.57621455139
O -1.179225631 4.80312068576 4.57621562139
O 11.097777009 1.60104140576 4.54695632139
O 11.097771589 4.80312549576 4.54695739139
O 11.803014851 1.60104494424 1.55378945861
O 11.803009431 4.80312903424 1.55379052861
O 24.080012071 1.60104975424 1.52453122861
O 24.080006651 4.80313384424 1.52453229861
O 4.959281109000001 -3.04424e-06 4.56158490139
O 4.959275689000001 3.20208104576 4.56158597139
O 17.236278329 1.76576e-06 4.53232667139
O 17.236272909 3.20208585576 4.53232774139
O 5.664518951 4.9424e-07 1.56841803861
O 5.664513531 3.20208458424 1.56841910861
O 17.941516171 5.30424e-06 1.53915980861
O 17.941510751 3.20208939424 1.53916087861
