40   
   
Al 0.91711710996 5.67854347538 -0.011222236
Al 4.157165700039999 2.94770568962 4.615226441
Al 1.6346737891599998 1.36606654794 4.625418654120001
Al 3.43960902084 7.260182617059998 -0.02141444912
Al 3.4760430171000003 1.3560285656 7.278763725690002
Al 1.61464114262 7.277576082219999 2.64331836401
In 4.1283443251 5.664708014 2.63785851749
Al 0.96233983462 2.96889663382 7.284223572210002
Al 1.61143769118 7.351942308639998 6.44189013599
In 3.4741031881399995 1.27935574178 1.81250202471
Al 0.9607800587799998 3.03036466232 1.81775722835
In 4.124760820540001 5.6009333881 6.43663493235
Al 0.87534656262 0.26947021191 9.25266155703
Al 4.22745287982 8.369567754230001 4.59775680987
Al 1.69888011902 4.57767497543 4.6112233090700006
Al 3.40391932342 4.061362990709999 9.23919505783
O 4.21645247202 5.77588373934 8.252041642670001
O 0.88028932906 2.86043756764 3.63420858563
O 3.39456259122 1.4547807779 3.62844177479
O 1.70217920986 7.18154052908 8.25780845351
O 2.6622140525 0.0784348129 5.819303934830001
O 2.41944079274 8.551120475039998 1.17505583507
O 4.926112992499999 4.3826466389 1.17338188183
O 0.15554185274 4.24690864904 5.820977888070001
O 4.93329190104 7.203830933749999 5.885115837520001
O 0.14887727224 1.42595501393 1.27601292528
O 2.67103663664 2.8867209098300006 1.2659997746800002
O 2.41113253664 5.74306503785 5.895128988120001
O 0.09864506202 7.141496430519999 1.11024558659
O 4.982552602739999 1.48785382654 5.73587507851
O 2.46808931402 2.82444019012 5.74174421079
O 2.61310835074 5.80491006694 1.10437645431
O 1.84686653648 1.47380381576 8.01560758866
O 3.24833228048 7.161825511999998 3.37033566094
O 0.72641044928 5.7873976488 3.38022090974
O 4.36878836768 2.84823167896 8.00572233986
O 4.236038968919999 0.00849512675 8.325330347780001
O 0.86110286508 8.62800558225 3.69062909722
O 3.36739501172 4.32139089379 3.68915978686
O 1.72974682228 4.31510981521 8.32679965814
