80   
   
Ga 10.98611851613 1.4145905e-05 1.142190361045
Ga 10.98610779113 3.066768565905 1.142190421045
Ga 23.38195548613 3.0440905e-05 1.115951116045
Ga 23.38194476113 3.066784860905 1.115951176045
Ga 0.0355853338699999 -1.100905e-06 4.519579343955001
Ga 0.0355746088699998 3.066753319095 4.519579403955
Ga 12.43142230387 1.5194095e-05 4.4933400989550005
Ga 12.43141157887 3.066769614095 4.493340158955
Ga 4.788194668629999 1.533383208405 1.155310013545
Ga 4.788183943629999 4.600137628405 1.155310073545
Ga 17.18403163863 1.533399503405 1.129070768545
Ga 17.18402091363 4.600153923405 1.129070828545
Ga 6.23349845637 1.533384256595 4.506459751455001
Ga 6.23348773137 4.600138676595 4.5064598114550005
Ga 18.62933542637 1.533400551595 4.480220506455001
Ga 18.62932470137 4.600154971595 4.480220566455
Al 9.48223820895 1.533388684595 3.879906964655
Ga 9.482227483949998 4.600143104595 3.879907024655001
Ga 21.87807517895 1.533404979595 3.8536677196550007
Ga 21.87806445395 4.600159399595 3.8536677796550007
Ga 1.5394549160499995 1.533378780405 1.781862800345
Ga 1.53944419105 4.600133200405 1.7818628603450002
Al 13.93529188605 1.533395075405 1.755623555345
Ga 13.93528116105 4.600149495405 1.7556236153450002
Ga 3.28432508645 3.327095e-06 3.8930265571550007
Al 3.28431436145 3.066757747095 3.8930266171550008
Ga 15.680162056449996 1.9622095e-05 3.866787312155001
Ga 15.680151331449997 3.066774042095 3.866787372155001
Ga 7.73737876355 9.717905e-06 1.7687431478450002
Al 7.73736803855 3.066764137905 1.768743207845
Ga 20.13321573355 2.6012905e-05 1.7425039028450002
Ga 20.13320500855 3.066780432905 1.742503962845
O 9.65086100075 1.2055715e-05 2.4639600555350003
O 9.65085027575 3.066766475715 2.4639601155350004
O 22.04669797075 2.8350715e-05 2.437720810535
O 22.04668724575 3.066782770715 2.437720870535
O 1.3708428492499998 9.89285e-07 3.197809649465
O 1.3708321242499997 3.066755409285 3.197809709465
O 13.76667981925 1.7284285e-05 3.171570404465
O 13.76666909425 3.066771704285 3.171570464465
O 3.4529371532500006 1.533381118215 2.477079708035
O 3.4529264282500005 4.600135538215 2.4770797680350003
O 15.84877412325 1.533397413215 2.450840463035
O 15.84876339825 4.600151833215 2.450840523035
O 7.56875597175 1.5333863467850002 3.184690056965
O 7.56874524675 4.600140766785 3.184690116965
O 19.96459294175 1.5334026417850002 3.158450811965
O 19.96458221675 4.600157061785 3.158450871965
O 9.12754539315 1.0713825e-05 5.0404181959250005
O 9.12753466815 3.066765133825 5.040418255925
O 21.52338236315 2.7008825e-05 5.014178950925
O 21.52337163815 3.066781428825 5.014179010925001
O 1.89415845685 2.331175e-06 0.621351509075
O 1.89414773185 3.066756751175 0.621351569075
O 14.28999542685 1.8626175e-05 0.5951122640750001
O 14.28998470185 3.066773046175 0.595112324075
O 2.9296215456500008 1.533379776325 5.053537848425001
O 2.9296108206500007 4.600134196325 5.0535379084250005
O 15.325458515649997 1.533396071325 5.027298603425001
O 15.325447790649998 4.600150491325 5.027298663425
O 8.09207157935 1.533387688675 0.6082319165750001
O 8.09206085435 4.600142108675 0.608231976575
O 20.487908549349996 1.533403983675 0.581992671575
O 20.48789782435 4.600158403675 0.5819927315750001
O -0.97140292278 1.5333748604300002 4.226085722870001
O -0.97141364778 4.60012928043 4.22608578287
O 11.42443404722 1.5333911554300002 4.19984647787
O 11.42442332222 4.60014557543 4.19984653787
O 11.993096047780002 1.53339260457 1.43568404213
O 11.99308532278 4.60014702457 1.4356841021300002
O 24.38893301778 1.53340889957 1.40944479713
O 24.38892229278 4.60016331957 1.4094448571300002
O 5.226520924719999 5.79793e-06 4.21296607037
O 5.226510199719999 3.06676021793 4.21296613037
O 17.62235789472 2.209293e-05 4.18672682537
O 17.62234716972 3.06677651293 4.186726885370001
O 5.79518292528 7.24707e-06 1.4488036346300002
O 5.79517220028 3.06676166707 1.44880369463
O 18.19101989528 2.354207e-05 1.4225643896300002
O 18.19100917028 3.06677796207 1.42256444963
