80   
   
Ga 10.774727053869999 2.288115e-06 1.218895624595
Ga 10.774719818869999 3.1448879631149995 1.2189072745949998
Al 22.98704103387 6.023115e-06 1.204473379595
In 22.98703379887 3.144891698115 1.2044850295949998
Al -0.1539562638700002 -3.953115e-06 4.776464790405
In -0.1539634988700002 3.144881721885 4.776476440405
Al 12.05835771613 -2.18115e-07 4.762042545405
Ga 12.05835048113 3.144885456885 4.762054195405001
In 4.668566446369999 1.572443258115 1.226112572095
In 4.668559211369999 4.717328933115 1.226124222095
Al 16.88088042637 1.572446993115 1.211690327095
Al 16.880873191369997 4.717332668115 1.211701977095
Al 5.952197108629999 1.572440751885 4.769259492905
Al 5.952189873629999 4.717326426885 4.7692711429050005
In 18.16451108863 1.572444486885 4.754837247905
Al 18.16450385363 4.717330161885 4.754848897905
Al 9.178753811339998 1.572442274235 4.110587621715
Al 9.178746576339998 4.717327949235 4.110599271715
In 21.39106779134 1.572446009235 4.096165376715001
In 21.39106055634 4.717331684235 4.096177026715
In 1.44200974366 1.572441735765 1.884784443285
Ga 1.44200250866 4.717327410765 1.884796093285
In 13.65432372366 1.572445470765 1.870362198285
In 13.65431648866 4.717331145765 1.870373848285
In 3.0726004388399994 -2.430765e-06 4.117792919215001
Ga 3.0725932038399995 3.144883244235 4.117804569215
In 15.284914418839996 1.304235e-06 4.103370674215
In 15.284907183839996 3.144886979235 4.1033823242150005
Al 7.548170351159999 7.65765e-07 1.877567495785
Ga 7.548163116159999 3.144886440765 1.877579145785
Al 19.76048433116 4.500765e-06 1.863145250785
Ga 19.760477096159995 3.144890175765 1.863156900785
O 9.40407928743 7.29045e-07 2.614347825805
O 9.40407205243 3.144886404045 2.614359475805
O 21.61639326743 4.464045e-06 2.599925580805
O 21.61638603243 3.144890139045 2.599937230805
O 1.2166915025699998 -2.394045e-06 3.381012589195
O 1.2166842675699998 3.144883280955 3.381024239195
O 13.42900548257 1.340955e-06 3.366590344195
O 13.42899824757 3.144887015955 3.366601994195
O 3.29791867993 1.572441699045 2.621564773305
O 3.29791144493 4.717327374045 2.621576423305
O 15.510232659929997 1.5724454340449998 2.607142528305
O 15.510225424929997 4.717331109045 2.607154178305
O 7.322844875069999 1.572442310955 3.3738072916949995
O 7.322837640069999 4.717327985955 3.373818941695
O 19.53515885507 1.572446045955 3.3593850466949995
O 19.53515162007 4.717331720955 3.359396696695
O 8.780808734199999 -1.687275e-06 5.336663992825
O 8.780801499199999 3.144883987725 5.336675642825
O 20.9931227142 2.047725e-06 5.322241747825
O 20.9931154792 3.144887722725 5.322253397825
O 1.8399620558 2.2275e-08 0.658696422175
O 1.8399548208 3.144885697275 0.658708072175
O 14.052276035799999 3.757275e-06 0.644274177175
O 14.052268800799999 3.144889432275 0.644285827175
O 2.6746481267 1.572439282725 5.343880940325
O 2.6746408917 4.717324957725 5.343892590325
O 14.886962106699997 1.572443017725 5.329458695325
O 14.886954871699997 4.717328692725 5.329470345325
O 7.946115428299999 1.5724447272749995 0.651491124675
O 7.946108193299998 4.717330402275 0.651502774675
O 20.1584294083 1.572448462275 0.637068879675
O 20.1584221733 4.717334137275 0.637080529675
O -1.13367095175 1.5724388402399998 4.4652166524
O -1.13367818675 4.7173245152400005 4.4652283024
O 11.07864302825 1.57244257524 4.4507944074
O 11.07863579325 4.7173282502400005 4.4508060574
O 11.754434506749998 1.57244516976 1.5301554126
O 11.754427271749998 4.717330844759999 1.5301670626
O 23.96674848675 1.57244890476 1.5157331676
O 23.96674125175 4.71733457976 1.5157448176
O 4.9724896557500005 -2.12976e-06 4.4579997049
O 4.9724824207500005 3.14488354524 4.4580113549
O 17.18480363575 1.60524e-06 4.4435774599
O 17.184796400749995 3.14488728024 4.4435891099
O 5.64828113425 4.6476e-07 1.5373607101
O 5.64827389925 3.14488613976 1.5373723601
O 17.86059511425 4.19976e-06 1.5229384651
O 17.860587879249998 3.14488987476 1.5229501151
