80   
   
Ga -0.047858085 -0.0254381325 5.9798702925
Ga -0.143574255 -0.0763143975 17.9396108775
Al 4.66908317 2.7473762975 6.0284569225
Ga 4.573367 2.6965000325 17.9881975075
Ga 3.11100802 -0.0007332925 6.0051643875
Ga 3.01529185 -0.0516095575 17.9649049725
Al 1.510217065 2.7226714575 6.003162827500001
In 1.414500895 2.6717951925 17.9629034125
Ga 0.0 0.0 0.0
Al -0.09571617 -0.050876265 11.959740585
Ga 4.716941255 2.77281443 0.04858663
Al 4.621225085 2.721938165 12.008327215
Ga 3.158866105 0.02470484 0.025294095
In 3.063149935 -0.026171425 11.98503468
Ga 1.55807515 2.74810959 0.023292535
Al 1.46235898 2.697233325 11.98303312
Ga -0.0381662203064998 1.810936663272 2.9970314282175
Al -0.1338823903064998 1.7600603982719998 14.9567720132175
Al -1.6389571753065 4.534341413271999 2.9950298682175003
Al -1.7346733453065 4.483465148271999 14.9547704532175
Ga 3.1206998846935 1.835641503272 3.0223255232175
Ga 3.0249837146935 1.7847652382719998 14.9820661082175
Ga 1.5199089296934991 4.559046253271999 3.0203239632175003
Al 1.4241927596934991 4.508169988271999 14.9800645482175
Ga 1.5005252003065 0.8862966617279999 8.9860016917825
Ga 1.4048090303065 0.835420396728 20.9457422767825
Ga -0.1002657546935 3.609701411728 8.9840001317825
Al -0.1959819246935 3.558825146728 20.9437407167825
Ga 4.6593913053065 0.911001501728 9.0112957867825
Al 4.5636751353065 0.8601252367279999 20.971036371782496
Ga 3.0586003503065005 3.634406251728 9.009294226782501
Ga 2.9628841803065 3.583529986728 20.969034811782496
O -0.0538541005694998 1.8025980434385 4.957232910099
O -0.1495702705694998 1.7517217784384995 16.916973495099
O -1.6546450555695 4.526002793438499 4.955231350099
O -1.7503612255695 4.475126528438499 16.914971935099
O 3.1050120044305 1.8273028834385 4.9825270050990005
O 3.0092958344305 1.7764266184384998 16.942267590099
O 1.5042210494304993 4.550707633438499 4.980525445099
O 1.4085048794304993 4.499831368438499 16.940266030099
O 1.5162130805694998 0.8946352815615 7.025800209901
O 1.4204969105694998 0.8437590165615 18.985540794901
O -0.0845778744305 3.6180400315614993 7.023798649901
O -0.1802940444305 3.5671637665614995 18.983539234901
O 4.6750791855695 0.9193401215615 7.051094304901
O 4.5793630155695 0.8684638565614999 19.010834889901
O 3.0742882305695005 3.6427448715614994 7.049092744901
O 2.9785720605695003 3.5918686065614995 19.008833329900998
O 1.4848373200435 0.8779580418944999 10.946203173664
O 1.3891211500435 0.8270817768944999 22.905943758664
O -0.1159536349565 3.6013627918945 10.944201613664
O -0.2116698049565 3.5504865268944994 22.903942198664
O 4.643703425043499 0.9026628818944998 10.971497268664
O 4.5479872550435 0.8517866168944999 22.931237853664
O 3.0429124700435004 3.6260676318945 10.969495708664
O 2.9471963000435 3.5751913668944995 22.929236293664
O -0.0224783400434998 1.8192752831055 1.036829946336
O -0.1181945100434998 1.7683990181054998 12.996570531336
O -1.6232692950435 4.5426800331055 1.034828386336
O -1.7189854650435 4.491803768105499 12.994568971336
O 3.1363877649564995 1.8439801231055 1.062124041336
O 3.0406715949565 1.7931038581055 13.021864626336
O 1.5355968099564994 4.5673848731055 1.060122481336
O 1.4398806399564994 4.516508608105499 13.019863066336
O -0.0239290425 -0.01271906625 2.98993514625
O -0.1196452125 -0.06359533125 14.94967573125
O 4.6930122125 2.76009536375 3.03852177625
O 4.5972960425 2.70921909875 14.99826236125
O 3.1349370625 0.01198577375 3.01522924125
O 3.0392208925 -0.03889049125 14.97496982625
O 1.5341461075 2.73539052375 3.01322768125
O 1.4384299375 2.68451425875 14.97296826625
O -0.0717871275 -0.03815719875 8.96980543875
O -0.1675032975 -0.08903346375 20.92954602375
O 4.6451541275 2.73465723125 9.018392068750002
O 4.5494379575 2.68378096625 20.97813265375
O 3.0870789775 -0.01345235875 8.99509953375
O 2.9913628075 -0.06432862375 20.95484011875
O 1.4862880225 2.70995239125 8.99309797375
O 1.3905718525 2.65907612625 20.95283855875
