80   
   
Al 7.412866732499999 2.4674645500000003 7.41150182
Al 2.4695205925 7.40622854 7.417325205
Al 7.409177122499998 7.41277926 2.474543815
Al 7.410670477499998 7.40848815 7.415730359999999
Al 2.4680272375 7.410519649999999 2.47613866
Al 7.411373377499999 2.4717556600000004 2.470315275
Al 2.4717168475 2.4652049400000005 7.4130966649999985
Al 2.4702234925 2.4694960500000005 2.47191012
In 7.41117127284 4.604132300200001 4.94273527678
In 2.46633177784 9.5471874002 0.00737211678
In 7.409379227159999 5.2804026198 0.00212381322
In 4.93924730936 7.40979569548 4.60993382494
In 0.00178703436 2.46222137548 9.54848667494
In -0.00169947936 7.406952494519999 5.2835300400600005
In 4.605195470319999 4.936692891520001 7.41452196196
In 9.54704825532 0.00222001152 2.46751203196
In 5.279388109679999 -0.00402340152 7.41007652304
In 2.46972269716 5.2738518998 4.94490520322
In 7.41157548216 0.3393790198000001 -0.00210472678
In 2.46852803284 4.6061638002 0.00314357678
In 4.94164666064 2.46818850452 5.27770665506
In -0.00319283436 7.41124360452 0.34234349506
In 0.00029367936 2.46651248548 4.6073001299400005
In 5.275698499679999 4.94129130848 2.47311851804
In 0.33823822468 -0.00628301152 7.411671368039999
In 4.60589837032 -3.959848e-05 2.46910687696
In 2.47191895216 0.3328282998000001 4.94067666322
In 4.94015330564 2.47247961452 0.33652011006
In 0.33454861468 4.93903169848 2.47471336304
Al 7.408975017839999 9.5451559002 4.94696381678
In 4.94074066436 7.40550458548 9.55112036994
Al 9.54634535532 4.93895250152 7.412927116959999
O 6.127267667749999 3.86105243528 6.48416585752
O 3.75388096943 8.799377965120001 8.34704606404
O 8.694214685769998 6.0208048320800005 1.54399363656
O 6.12687160205 6.013725267520001 8.343895641879998
O 6.48123309653 6.1264782243 3.86715883115
O 8.341653010689999 3.75134539966 8.80571601523
O 1.53959226171 8.69167996234 6.025309850569999
O 8.339756556069998 6.125456913700001 6.02091650305
O 3.86294948371 6.479069001820001 6.13137199149
O 8.802556766429998 8.34121321822 3.75959753593
O 6.020263633169999 1.53679921458 8.69586510247
O 6.016465041689999 8.337879065380001 6.13226657011
O 3.75362630225 6.016931764720001 3.40347462248
O 6.127013000569999 1.0786062348799998 1.54059441596
O 1.18667928423 3.85717936792 8.34364684344
O 3.75402236795 3.86425893248 1.54374483812
O 3.39966087347 3.7515059757 6.02048164885
O 1.53924095931 6.12663880034 1.08192446477
O 8.34130170829 1.18630423766 3.86233062943
O 1.54113741393 3.7525272863 3.86672397695
O 6.017944486289999 3.39891519818 3.75626848851
O 1.0783372035699998 1.5367709817800002 6.12804294407
O 3.86063033683 8.341184985420004 1.19177537753
O 3.86442892831 1.54010513462 3.75537390989
O 1.18242817275 8.804107535280004 1.54880269752
O 8.69573375443 3.86490508512 3.40003613404
O 3.75675441077 1.07323051208 6.48254648656
O 1.18642461705 1.07473316752 3.40007540188
O 1.54377282153 1.1789039043000002 8.80571168115
O 3.39681351569 8.69440049966 3.87035285523
O 6.481445046709999 3.75720708234 1.07829992057
O 3.39930957107 1.1864648137000002 1.07709626305
O 8.804802268709999 1.5445961218200002 1.18436206149
O 3.86509649143 3.39363889822 8.69815038593
O 1.0754241381699998 6.479854314580001 3.76050194247
O 1.07601805669 3.39888696538 1.18844633011
O 8.69846579725 1.07387666472 8.33883778248
O 1.1851602155699998 6.01307911488 6.48760434596
O 6.12413955923 8.804753687920002 3.4050939934399995
O 8.694469352949998 8.803251032480002 6.48756507812
O 8.33712114847 8.699080295700002 1.08192879885
O 6.484080454309999 1.18358370034 6.01728762477
O 3.39944892329 6.12077711766 8.80934055943
O 6.481584398929999 8.691519386299998 8.810544216949998
O 1.0760917012899998 8.333388078180002 8.70327841851
O 6.01579747857 6.484345301780001 1.18949009407
O 8.805469831829997 3.3981298854199995 6.12713853753
O 8.80487591331 6.47909723462 8.699194149889998
