80   
   
In -0.0377800175 -0.0489981075 6.06263457
Al -0.1133400525 -0.1469943225 18.18790371
In 4.790039107499999 2.8789133625 6.1146423400000005
Al 4.7144790725 2.7809171475 18.23991148
In 3.2212215725 0.0213604825 6.083052115
Al 3.1456615375 -0.0766357325 18.208321255
In 1.5310375175 2.8085547725 6.094224795000001
Ga 1.4554774825 2.7105585575 18.219493935
In 0.0 0.0 0.0
Al -0.075560035 -0.097996215 12.12526914
Al 4.827819125 2.92791147 0.05200777
Al 4.75225909 2.8299152549999995 12.17727691
In 3.25900159 0.07035859 0.020417545
Ga 3.183441555 -0.027637625 12.145686685
Al 1.568817535 2.85755288 0.031590225
In 1.4932575 2.759556665 12.156859365
Al -0.0593414698660001 1.856895178011 3.0455701612365003
In -0.1349015048660001 1.7588989630109997 15.1708393012365
In -1.749525524866 4.644089468011001 3.0567428412365
Al -1.825085559866 4.5460932530110005 15.1820119812365
Al 3.199660120134 1.927253768011 3.0659877062365
Ga 3.1241000851339997 1.829257553011 15.191256846236499
Al 1.5094760651339996 4.714448058011 3.0771603862365
In 1.4339160301339997 4.616451843011 15.202429526236498
In 1.5525989698659997 0.902661486989 9.111289203763501
In 1.4770389348659996 0.804665271989 21.2365583437635
Al -0.1375850851340004 3.689855776989 9.122461883763501
Ga -0.2131451201340004 3.591859561989 21.247731023763496
Ga 4.811600559866 0.973020076989 9.1317067487635
Al 4.7360405248660005 0.8750238619890001 21.256975888763495
Al 3.121416504866 3.760214366989 9.1428794287635
Ga 3.045856469866 3.662218151989 21.2681485687635
O -0.0717257596025001 1.8408335983725 5.0329017732825
O -0.1472857946025 1.7428373833724995 17.1581709132825
O -1.7619098146025 4.6280278883725 5.0440744532825
O -1.8374698496025 4.5300316733725 17.1693435932825
O 3.1872758303974997 1.9111921883725 5.0533193182825
O 3.1117157953975 1.8131959733725 17.178588458282498
O 1.4970917753974995 4.6983864783725 5.0644919982825
O 1.4215317403974994 4.6003902633725 17.1897611382825
O 1.5649832596024995 0.9187230666275 7.1239575917175
O 1.4894232246024997 0.8207268516274999 19.249226731717503
O -0.1252007953975004 3.7059173566275 7.135130271717499
O -0.2007608303975004 3.6079211416275 19.2603994117175
O 4.8239848496025 0.9890816566275 7.1443751367175
O 4.7484248146025 0.8910854416275 19.2696442767175
O 3.1338007946025 3.7762759466275 7.155547816717499
O 3.0582407596025 3.6782797316275 19.2808169567175
O 1.5402146801294996 0.8865999073504999 11.0986208158095
O 1.4646546451294995 0.7886036923504999 23.2238899558095
O -0.1499693748705004 3.6737941973505 11.1097934958095
O -0.2255294098705004 3.5757979823505 23.2350626358095
O 4.7992162701295005 0.9569584973505 11.119038360809501
O 4.7236562351295 0.8589622823505 23.2443075008095
O 3.1090322151295 3.7441527873505 11.1302110408095
O 3.0334721801295 3.6461565723505 23.2554801808095
O -0.0469571801295001 1.8729567576495 1.0582385491905
O -0.1225172151295001 1.7749605426494997 13.183507689190499
O -1.7371412351295 4.6601510476495 1.0694112291905
O -1.8127012701295 4.5621548326495 13.194680369190499
O 3.2120444098704994 1.9433153476495 1.0786560941905
O 3.1364843748705 1.8453191326495 13.2039252341905
O 1.5218603548704994 4.7305096376495 1.0898287741905
O 1.4463003198704996 4.6325134226495 13.2150979141905
O -0.01889000875 -0.02449905375 3.031317285
O -0.09445004375 -0.12249526875 15.156586425
O 4.80892911625 2.90341241625 3.083325055
O 4.733369081249999 2.80541620125 15.208594195
O 3.24011158125 0.04585953625 3.05173483
O 3.16455154625 -0.05213667875 15.17700397
O 1.54992752625 2.83305382625 3.06290751
O 1.47436749125 2.73505761125 15.18817665
O -0.05667002625 -0.07349716125 9.093951855
O -0.13223006125 -0.17149337625 21.219220995
O 4.77114909875 2.85441430875 9.145959625
O 4.69558906375 2.75641809375 21.271228765
O 3.20233156375 -0.00313857125 9.1143694
O 3.12677152875 -0.10113478625 21.23963854
O 1.51214750875 2.78405571875 9.12554208
O 1.43658747375 2.68605950375 21.25081122
