80   
   
Al 1.64746675836 7.49947742036 6.55068886253
In 6.78954683336 7.48658712536 6.53142035253
Al 3.54794157632 1.3063968890199995 1.84169408521
Al 8.69002165132 1.29350659402 1.82242557521
In 0.98131990906 3.09063882694 1.84743141277
Al 6.12339998406 3.07774853194 1.82816290277
In 4.21408842562 5.71523548244 6.54495153497
Al 9.35616850062 5.70234518744 6.52568302497
In 0.934824846385 5.788733667375 -0.01614301505
Al 6.076904921385 5.775843372374999 -0.03541152505
In 4.246720708615 3.009300132625 4.69287539005
In 9.388800783615 2.9964098376250003 4.67360688005
Al 1.671656017035 1.396366025485 4.70605932153
In 6.813736092035 1.3834757304849998 4.68679081153
In 3.5450742579650005 7.421567544514998 9.401258263470002
Al 8.687154332965001 7.408677249514999 9.38198975347
In 0.89967518148 0.2817435269699999 9.41733876351
Al 6.04175525648 0.26885323197 9.39807025351
Al 4.31698472408 8.53615024349 4.67111765107
Al 9.45906479908 8.52325994849 4.6518491410700005
Al 1.73632051378 4.67016673859 4.68924026287
Al 6.87840058878 4.65727644359 4.66997175287
Al 3.4803393917800003 4.14772703187 9.39921615171
Al 8.62241946678 4.13483673687 9.37994764171
In 3.553449305855 1.388584217885 7.40564283088
Al 8.695529380855001 1.375693922885 7.38637432088
Al 1.648292278425 7.4208720500949985 2.68424545466
Al 6.790372353424999 7.4079817550949985 2.66497694466
Ga 4.215263915604999 5.777445699535 2.67819945958
Al 9.357343990605 5.764555404535 2.65893094958
Al 0.986477668675 3.0320105684450005 7.41168882596
Al 6.1285577436750005 3.0191202734450004 7.39242031596
O 4.308837454415 5.894936186545 8.39263283706
O 9.450917529415 5.882045891544999 8.373364327060001
O 0.9003632905050001 2.9187388326750003 3.696539513
O 6.042443365505 2.9058485376750003 3.677271003
O 3.4678598825650004 1.486535863155 3.69003051664
O 8.609939957565 1.473645568155 3.67076200664
O 1.741340862355 7.327139156064998 8.39914183342
O 6.883420937354999 7.314248861065 8.37987332342
O 2.721920086335 0.084958318345 5.92154850386
O 7.864000161334999 0.072068023345 5.902279993860001
O 2.468703126425 8.718209622314998 1.18827485532
O 7.610783201425002 8.705319327314998 1.16900634532
O 5.029200320085001 4.469694905595 1.18793920936
O 10.171280395085 4.456804610595 1.16867069936
O 0.161422892675 4.333473035065 5.92188414982
O 5.3035029676750005 4.320582740065 5.9026156398200005
O 0.099477622485 7.280620189414998 1.12485753032
O 5.241557697485 7.267729894414998 1.10558902032
O 5.090582634755 1.522229354925 5.8340764655
O 10.232662709755001 1.5093390599249998 5.8148079555
O 2.522911057735 2.884024530765 5.84073979562
O 7.664991132735 2.871134235765 5.82147128562
O 2.6671491995050003 5.918825013575001 1.1181942002
O 7.8092292745049985 5.905934718575001 1.0989256902
O 5.03881373946 7.348980151869998 5.981875786060001
O 10.18089381446 7.336089856869998 5.96260727606
O 0.15244279826 1.4545459846500002 1.2976981069000002
O 5.29452287326 1.44165568965 1.2784295969
O 2.72720126616 2.94426645285 1.2847842595
O 7.86928134116 2.93137615785 1.2655157495000002
O 2.46405527156 5.85925968367 5.99478963346
O 7.60613534656 5.84636938867 5.97552112346
O 1.890479304995 1.508745420025 8.15665126735
O 7.032559379995 1.495855125025 8.13738275735
O 3.3168214650450003 7.303855011614998 3.42326948137
O 8.458901540044998 7.290964716614998 3.40400097137
O 0.7422817283450001 5.902144285515 3.43599041157
O 5.8843618033450005 5.889253990515 3.41672190157
O 4.465019041695 2.910456146125 8.143930337149998
O 9.607099116695 2.897565851125 8.124661827149998
O 4.33046706382 0.01593448059 8.47139892292
O 9.47254713882 0.00304418559 8.45213041292
O 0.87922626718 8.798019135409998 3.74980162008
O 6.02130634218 8.785128840409998 3.73053311008
O 3.43937349092 4.40868883133 3.74977464164
O 8.58145356592 4.39579853633 3.73050613164
O 1.7703198400800002 4.405264784670001 8.47142590136
O 6.91239991508 4.392374489670001 8.45215739136
