80   
   
Ga -0.0248981675 -0.027495025 6.0814473125
Ga -0.0746945025 -0.082485075 18.2443419375
Ga 4.8961346625 2.7555980850000004 6.1136306975
Ga 4.8463383275 2.700608035 18.2765253225
Ga 3.2388017475 -0.056492685 6.0944847625
Al 3.1890054125 -0.111482735 18.2573793875
Ga 1.6324347475 2.7845957450000003 6.1005932475
Al 1.5826384125 2.729605695 18.2634878725
Al 0.0 0.0 0.0
Al -0.049796335 -0.05499005 12.162894625
Ga 4.92103283 2.7830931100000003 0.032183385
Ga 4.871236495 2.7281030600000005 12.19507801
Ga 3.263699915 -0.02899766 0.01303745
In 3.21390358 -0.08398771 12.175932075
Ga 1.657332915 2.81209077 0.019145935
In 1.60753658 2.7571007200000004 12.18204056
Ga 0.0045378557195001 1.87045711486 3.049140954436
Ga -0.0452584792804999 1.81546706486 15.212035579436
Ga -1.6018291442805004 4.71154554486 3.055249439436
Ga -1.6516254792805003 4.65655549486 15.218144064436
In 3.2682377707195003 1.84145945486 3.062178404436
Ga 3.2184414357195004 1.78646940486 15.225073029436
Ga 1.6618707707194995 4.68254788486 3.068286889436
In 1.6120744357194998 4.62755783486 15.231181514436
In 1.6029987242805002 0.88664360514 9.132899605564
Ga 1.5532023892805 0.83165355514 21.295794230564
Ga -0.0033682757194998 3.72773203514 9.139008090564
In -0.0531646107194998 3.67274198514 21.301902715564
In 4.8666986392805 0.8576459451399999 9.145937055564
Ga 4.8169023042805 0.8026558951399999 21.308831680564
Ga 3.2603316392805004 3.69873437514 9.152045540564
In 3.2105353042805005 3.64374432514 21.314940165564
O -0.0036237635869999 1.861444245665 5.0426393834735
O -0.0534200985869999 1.806454195665 17.2055340084735
O -1.6099907635870003 4.702532675665 5.0487478684735
O -1.6597870985870005 4.647542625665 17.211642493473498
O 3.260076151413 1.832446585665 5.0556768334735
O 3.210279816413 1.777456535665 17.218571458473498
O 1.6537091514129998 4.673535015665 5.0617853184735
O 1.6039128164129997 4.618544965665 17.2246799434735
O 1.611160343587 0.895656474335 7.1394011765265
O 1.5613640085870002 0.8406664243349999 19.302295801526498
O 0.0047933435870002 3.736744904335 7.145509661526499
O -0.0450029914129998 3.681754854335 19.308404286526496
O 4.874860258587 0.8666588143349999 7.152438626526499
O 4.825063923587 0.8116687643349999 19.315333251526496
O 3.268493258587 3.707747244335 7.1585471115265
O 3.218696923587 3.652757194335 19.321441736526502
O 1.594837104974 0.877630735945 11.1263980346015
O 1.545040769974 0.822640685945 23.2892926596015
O -0.0115298950259998 3.718719165945 11.1325065196015
O -0.0613262300259998 3.663729115945 23.2954011446015
O 4.858537019974 0.8486330759449999 11.139435484601503
O 4.808740684974 0.7936430259449999 23.3023301096015
O 3.252170019974 3.689721505945 11.145543969601501
O 3.2023736849740003 3.634731455945 23.308438594601498
O 0.0126994750260001 1.879469984055 1.0556425253985
O -0.0370968599739999 1.824479934055 13.218537150398499
O -1.5936675249740004 4.720558414055 1.0617510103985
O -1.6434638599740004 4.665568364055 13.224645635398499
O 3.2763993900260004 1.850472324055 1.0686799753985
O 3.226603055026 1.795482274055 13.2315746003985
O 1.6700323900259997 4.691560754055 1.0747884603984998
O 1.6202360550259998 4.636570704055 13.2376830853985
O -0.01244908375 -0.0137475125 3.04072365625
O -0.06224541875 -0.0687375625 15.20361828125
O 4.90858374625 2.7693455975 3.07290704125
O 4.85878741125 2.7143555475000003 15.23580166625
O 3.25125083125 -0.0427451725 3.05376110625
O 3.20145449625 -0.0977352225 15.21665573125
O 1.64488383125 2.7983432575 3.05986959125
O 1.59508749625 2.7433532075 15.22276421625
O -0.03734725125 -0.0412425375 9.122170968750002
O -0.08714358625 -0.0962325875 21.28506559375
O 4.88368557875 2.7418505725 9.15435435375
O 4.83388924375 2.6868605225000004 21.31724897875
O 3.22635266375 -0.0702401975 9.13520841875
O 3.1765563287500003 -0.1252302475 21.29810304375
O 1.61998566375 2.7708482325 9.14131690375
O 1.57018932875 2.7158581825000003 21.30421152875
