80   
   
Ga 7.310390419999998 2.43242037 7.29380502
In 2.436429455 7.294172715 7.308661805
Ga 7.296997089999999 7.3079045 2.432956335
In 7.304492984999999 7.300498965 7.30089564
In 2.42893356 7.30157825 2.4407225
Ga 7.302894524999998 2.439825905 2.425865715
Ga 2.44232689 2.42609412 7.301571185
In 2.434830995 2.433499655 2.43363188
In 7.30409478058 4.53913309054 4.86289851534
Ga 2.42263792058 9.40829097054 0.00981599534
Ga 7.295796834419998 5.20859731446 -0.00407646534
Ga 4.866203551639999 7.301542183879999 4.53978919726
Ga 0.01153335164 2.41973180388 9.40840404726
In -0.00084053664 7.29420878112 5.20959510774
Ga 4.54238161746 4.8628663575 7.30176151172
Ga 9.40884668746 0.0085195475 2.4189654217200003
Ga 5.21033569254 -0.0043518675 7.29361469328
In 2.43522919942 5.19486552946 4.87162900466
Ga 7.301694269419999 0.3405187194600001 -0.01116708534
Ga 2.42853535558 4.54021237554 0.00272537534
Ga 4.87312042836 2.43245643612 5.19473832274
Ga -0.00833643164 7.30161431612 0.34165580274
In 0.00403745664 2.42713733888 4.54046474226
Ga 5.196942362540001 4.8711322625 2.43276600828
Ga 0.34227216254 -0.0106781175 7.30138085828
Ga 4.54078315746 0.0021932975 2.42673158672
In 2.44112663442 0.32678693446 4.86453838466
Ga 4.86562453336 2.43986197112 0.32679901774
In 0.32887883254 4.8648060125 2.4405321732800003
In 7.298197345579998 9.407211685539998 4.86998913534
Ga 4.873699446639999 7.29413664888 9.40772850226
In 9.41044514746 4.8691926075 7.29399534672
O 6.04162159727 3.804965949370001 6.382651188400001
O 3.70187212439 8.66722346321 8.22381474628
O 8.56294745621 5.9381434017900006 1.51376498792
O 6.041868772129999 5.92466373563 8.216087877399998
O 6.38544832185 6.03892636943 3.80533169683
O 8.226166872929998 3.69722177883 8.666947426190001
O 1.51758633587 8.560772175569998 5.93920652121
O 8.21910841935 6.03807622617 5.92483315577
O 3.80838315554 6.3826833807400005 6.03947449061
O 8.67063122038 8.22296183926 3.69776353233
O 5.94065415502 1.5135121525400002 8.560326261270001
O 5.92864141906 8.215839177460001 6.03875451579
O 3.69770238273 5.929032670630001 3.3518763316
O 6.03745185561 1.06677515679 1.51071277372
O 1.17637652379 3.79585521821 8.22076253208
O 3.69745520787 3.80933488437 1.5184396426
O 3.3538756581499998 3.69507225057 5.92919582317
O 1.5131571070699998 6.03677684117 1.06758009381
O 8.22173764413 1.17322644443 3.79532099879
O 1.52021556065 3.695922393830001 3.80969436423
O 5.93094082446 3.3513152392599994 3.69505302939
O 1.0686927596199998 1.51103678074 6.0367639876700006
O 3.79866982498 8.22048646746 1.17420125873
O 3.81068256094 1.51815944254 3.69577300421
O 1.16016473727 8.67412382937 1.5295686684
O 8.56833719439 3.81287665321 3.34101865628
O 3.70827725621 1.05633302179 6.38237983792
O 1.17220678213 1.05766442563 3.3488241174
O 1.53077812185 1.15711598943 8.67394654683
O 3.34471001293 8.56637965883 3.81386490619
O 6.38405140587 3.70642536557 1.05641043121
O 3.3494464293499995 1.17107691617 1.05756939577
O 8.67484822554 1.52833657074 1.15667840061
O 3.81596102038 3.34115145926 8.56637838233
O 1.0591972950199997 6.382670032540001 3.70724374127
O 1.05897942906 3.3488398674599997 1.17149075579
O 8.57915924273 1.05987479063 8.2049588516
O 1.17098678561 5.92112196679 6.39350886372
O 6.03104672379 8.67766559821 3.35214768208
O 8.567117197870001 8.67633419437 6.385703402600001
O 8.20854585815 8.57688263057 1.06058097317
O 6.39461396707 1.16761896117 5.92066261381
O 3.35527257413 6.02757325443 8.678117088789998
O 6.3898775506500005 8.56292170383 8.676958124229998
O 1.06447575446 8.20566204926 8.57784911939
O 5.92336295962 6.392847160740001 1.16814913767
O 8.680126684979998 3.3513285874599994 6.02728377873
O 8.680344550940001 6.385158752540001 8.56303676421
