80   
   
Ga 1.6546602553799998 7.40599538498 6.47601130871
Ga 6.71831075538 7.375210144979999 6.45242665371
Ga 3.5001253545199997 1.2784263528599995 1.81763371125
Al 8.563775854519998 1.2476411128599998 1.79404905625
Ga 0.97891145338 3.05134460474 1.82633384093
Ga 6.04256195338 3.0205593647399995 1.80274918593
Ga 4.17587415652 5.6330771331 6.467311179029999
Ga 9.239524656519999 5.6022918931 6.44372652403
Ga 0.94095912044 5.71949867856 -0.014294258025
Ga 6.00460962044 5.68871343856 -0.037878913025
Ga 4.19681323456 2.95849520144 4.635657613025
Ga 9.260463734559998 2.92770996144 4.612072958025
Ga 1.65532220144 1.37297338448 4.650266595965
Ga 6.71897270144 1.34218814448 4.626681940965
Ga 3.52563100356 7.321334855519998 9.291608599035
Ga 8.58928150356 7.29054961552 9.268023944035
Ga 0.8954068960499999 0.2721447835199999 9.30676986882
Ga 5.9590573960499995 0.24135954352 9.28318521382
Ga 4.28545994725 8.42213082776 4.6164643025
Ga 9.349110447249998 8.39134558776 4.5928796475
Ga 1.73052086805 4.60924979416 4.6349921104
Al 6.79417136805 4.57846455416 4.6114074554
Ga 3.45034597525 4.08502581712 9.28824206092
Ga 8.513996475249998 4.05424057712 9.26465740592
Ga 3.51083135596 1.3577491565 7.316683987535
Al 8.57448185596 1.3269639164999998 7.293099332535
Ga 1.65172680694 7.32960916614 2.654653163625
Al 6.71537730694 7.29882392614 2.631068508625
Al 4.1737812109600005 5.6959008653000005 2.645708107385
Al 9.237431710959997 5.6651156253 2.622123452385
Al 0.98877695194 2.99145745734 7.325629043775
Al 6.052427451939999 2.96067221734 7.302044388775
O 4.271470290219999 5.80976383738 8.293424402335
O 9.33512079022 5.77897859738 8.269839747335
O 0.90024221288 2.88105312958 3.653861258905
O 5.96389271288 2.8502678895800004 3.630276603905
O 3.4235573712200003 1.4561597553 3.644548812825
O 8.48720787122 1.4253745153 3.620964157825
O 1.74815513188 7.234657211659998 8.302736848415
O 6.8118056318799995 7.203871971659999 8.279152193414998
O 2.6860500500200004 0.0724050789 5.850082232295
O 7.749700550019998 0.0416198389 5.826497577295
O 2.4628629642799997 8.60979790598 1.175973177425
O 7.52651346428 8.57901266598 1.152388522425
O 4.96936806502 4.400705510899999 1.171559262545
O 10.03301856502 4.3699202709 1.147974607545
O 0.17954494928 4.28149747398 5.854496147175
O 5.243195449279999 4.25071223398 5.830911492175
O 0.12462313296 7.19692660334 1.114768521245
O 5.18827363296 7.16614136334 1.091183866245
O 5.02359898774 1.4850153517799995 5.762158699035
O 10.08724948774 1.4542301117799996 5.738574044035
O 2.49986357796 2.84030375054 5.771593608395
O 7.563514077959998 2.80951851054 5.748008953395
O 2.64835854274 5.84163820458 1.105333611885
O 7.71200904274 5.81085296458 1.081748956885
O 4.99328141235 7.2455046283 5.91078016441
O 10.056931912349999 7.2147193883 5.88719550941
O 0.15640885725 1.4369920150600002 1.28304445843
O 5.22005935725 1.40620677506 1.2594598034300002
O 2.69716445035 2.90070512486 1.26864978623
O 7.760814950349999 2.86991988486 1.24506513123
O 2.45252581925 5.7817915185 5.92517483661
O 7.516176319249999 5.7510062785 5.9015901816100005
O 1.8743027897 1.48212049392 8.060446848285
O 6.9379532897 1.4513352539200002 8.036862193284998
O 3.2950779475 7.207815497599999 3.383531173595
O 8.3587284475 7.177030257599999 3.359946518595
O 0.7548476687 5.8311086072 3.397772766695
O 5.8184981687 5.8003233672 3.374188111695
O 4.4145330685 2.85882738432 8.046205255185
O 9.478183568499999 2.82804214432 8.022620600185
O 4.272127114429999 -0.0023529147 8.368728576509998
O 9.33577761443 -0.0331381547 8.345143921510001
O 0.9001899205699999 8.6933982827 3.70904425049
O 5.96384042057 8.6626130427 3.68545959549
O 3.4058545184299995 4.34509593658 3.70487526217
O 8.469505018429999 4.31431069658 3.68129060717
O 1.76646251657 4.345949431419999 8.372897564829998
O 6.83011301657 4.315164191419999 8.349312909830001
