80   
   
Al 10.75128603036 2.281025e-06 1.205379971275
In 10.75127751536 3.105322041025 1.205398131275
In 22.92726522036 5.706025e-06 1.200227996275
Al 22.92725670536 3.105325466025 1.200246156275
Al -0.1200827103600001 -2.916025e-06 4.692214963725
Al -0.1200912253600001 3.105316843975 4.692233123725001
Al 12.05589647964 5.08975e-07 4.687062988725001
In 12.05588796464 3.105320268975 4.687081148725
Ga 4.66329217786 1.552660448525 1.207965038775
In 4.66328366286 4.657980208525 1.207983198775
Al 16.83927136786 1.552663873525 1.202813063775
Al 16.83926285286 4.657983633525 1.202831223775
Al 5.96790262714 1.552658676475 4.689648056225001
Al 5.96789411214 4.657978436475 4.6896662162250005
Al 18.14388181714 1.552662101475 4.684496081225
Al 18.14387330214 4.657981861475 4.684514241225
Ga 9.180277994469998 1.552659975265 4.0449606492850005
In 9.18026947947 4.657979735264999 4.044978809285
Al 21.35625718447 1.552663400265 4.039808674285
In 21.35624866947 4.657983160264999 4.039826834285001
In 1.45091681053 1.552659149735 1.852652445715
In 1.45090829553 4.657978909735 1.852670605715
Ga 13.62689600053 1.552662574735 1.847500470715
Ga 13.62688748553 4.657982334735 1.847518630715
Ga 3.09229265697 -1.617235e-06 4.047527556785001
Al 3.09228414197 3.105318142765 4.047545716785001
Al 15.268271846969997 1.807765e-06 4.042375581785
Ga 15.268263331969997 3.105321567765 4.042393741785
Ga 7.53891066303 9.82235e-07 1.850067378215
In 7.538902148030002 3.105320742235 1.850085538215
Al 19.71488985303 4.407235e-06 1.844915403215
In 19.71488133803 3.105324167235 1.844933563215
O 9.39446773494 1.058255e-06 2.575239716345
O 9.394459219940002 3.105320818255 2.5752578763450003
O 21.57044692494 4.483255e-06 2.570087741345
O 21.57043840994 3.105324243255 2.5701059013450003
O 1.23673558506 -1.693255e-06 3.322355218655
O 1.23672707006 3.105318066745 3.322373378655
O 13.41271477506 1.731745e-06 3.317203243655
O 13.41270626006 3.105321491745 3.317221403655
O 3.30647388244 1.552659225755 2.577824783845
O 3.30646536744 4.657978985755 2.5778429438450003
O 15.48245307244 1.552662650755 2.572672808845
O 15.48244455744 4.657982410755 2.572690968845
O 7.324720922559998 1.552659899245 3.319788311155
O 7.32471240756 4.657979659245 3.319806471155
O 19.50070011256 1.552663324245 3.314636336155
O 19.50069159756 4.657983084245 3.314654496155
O 8.79209209935 -7.53525e-07 5.249142850775001
O 8.792083584350001 3.105319006475 5.249161010775
O 20.96807128935 2.671475e-06 5.243990875775
O 20.968062774349995 3.105322431475 5.244009035775
O 1.83911122065 1.18525e-07 0.648452084225
O 1.83910270565 3.105319878525 0.648470244225
O 14.01509041065 3.543525e-06 0.643300109225
O 14.01508189565 3.105323303525 0.643318269225
O 2.70409824685 1.5526574139749998 5.251727918275001
O 2.70408973185 4.657977173975 5.2517460782750005
O 14.88007743685 1.5526608389749998 5.246575943275
O 14.880068921849997 4.6579805989750005 5.246594103275
O 7.92709655815 1.5526617110249998 0.645885176725
O 7.927088043149999 4.657981471025 0.645903336725
O 20.10307574815 1.552665136025 0.640733201725
O 20.10306723315 4.657984896025 0.640751361725
O -1.09906881215 1.55265687712 4.38572942623
O -1.09907732715 4.65797663712 4.38574758623
O 11.076910377849998 1.55266030212 4.38057745123
O 11.07690186285 4.65798006212 4.38059561123
O 11.73026361715 1.55266224788 1.51188366877
O 11.73025510215 4.65798200788 1.51190182877
O 23.90624280715 1.55266567288 1.5067316937700002
O 23.90623429215 4.65798543288 1.50674985377
O 4.98892504035 -1.29038e-06 4.38314435873
O 4.98891652535 3.10531846962 4.38316251873
O 17.16490423035 2.13462e-06 4.3779923837300005
O 17.16489571535 3.10532189462 4.37801054373
O 5.642278279649999 6.5538e-07 1.51445057627
O 5.642269764649999 3.10532041538 1.51446873627
O 17.81825746965 4.08038e-06 1.50929860127
O 17.818248954649995 3.10532384038 1.50931676127
