80   
   
In -0.015391835 -0.0391602875 6.1417255625
Ga -0.046175505 -0.1174808625 18.4251766875
In 5.000305995000001 2.8200588625 6.1721865525
Ga 4.969522325000001 2.7417382875 18.4556376775
Ga 3.3175433 -0.0573532625 6.149928527499999
In 3.28675963 -0.1356738375 18.4333796525
Ga 1.66737086 2.8382518375 6.1639835875
In 1.6365871900000002 2.7599312625000003 18.4474347125
Al 0.0 0.0 0.0
Al -0.03078367 -0.078320575 12.283451125
Ga 5.015697830000001 2.85921915 0.03046099
Ga 4.984914160000001 2.780898575 12.313912115
In 3.332935135 -0.018192975 0.008202965
Al 3.302151465 -0.09651355 12.29165409
Al 1.682762695 2.877412125 0.022258025
In 1.6519790250000002 2.79909155 12.305709149999998
Ga 0.0031664144915 1.9045664973425 3.0829659324805
In -0.0276172555085 1.8262459223425 15.366417057480499
Ga -1.6470060255085 4.8001715973425005 3.0970209924805
Ga -1.6777896955085 4.7218510223425 15.3804721174805
Ga 3.3361015494915 1.8863735223425 3.0911688974805
Ga 3.3053178794915 1.8080529473425 15.3746200224805
Ga 1.6859291094915 4.781978622342501 3.1052239574805
In 1.6551454394915002 4.7036580473425005 15.3886750824805
In 1.6488126105085 0.8945250526574999 9.222743217519497
In 1.6180289405085 0.8162044776574999 21.506194342519496
In -0.0013598294914999 3.7901301526575 9.236798277519501
In -0.0321434994914999 3.7118095776575 21.5202494025195
Ga 4.9817477455085 0.8763320776574999 9.230946182519501
Ga 4.9509640755085 0.7980115026574999 21.514397307519495
In 3.3315753055085007 3.7719371776575 9.245001242519502
In 3.3007916355085007 3.6936166026575 21.528452367519495
O -0.0018790290215 1.8917297551 5.096223571867999
O -0.0326626990215 1.8134091801 17.379674696867998
O -1.6520514690215 4.7873348551 5.110278631868
O -1.6828351390215 4.709014280100001 17.393729756867998
O 3.3310561059785 1.8735367801 5.104426536867999
O 3.3002724359785 1.7952162051 17.387877661867996
O 1.6808836659785 4.7691418801 5.118481596868
O 1.6500999959785 4.690821305100001 17.401932721867997
O 1.6538580540215 0.9073617949 7.209485578131998
O 1.6230743840215 0.8290412199 19.492936703132
O 0.0036856140215001 3.8029668949 7.223540638131999
O -0.0270980559784999 3.7246463199 19.506991763132
O 4.9867931890215 0.8891688199 7.217688543132
O 4.9560095190215 0.8108482449 19.501139668132
O 3.3366207490215007 3.7847739199 7.231743603131998
O 3.305837079021501 3.7064533449 19.515194728132
O 1.6437671669955 0.881688310415 11.236000856907
O 1.6129834969955 0.803367735415 23.519451981907
O -0.0064052730044999 3.777293410415 11.250055916907002
O -0.0371889430044999 3.698972835415 23.533507041907
O 4.9767023019955 0.8634953354149999 11.244203821907
O 4.9459186319955 0.7851747604149999 23.527654946907003
O 3.3265298619955006 3.759100435415 11.258258881907
O 3.2957461919955007 3.680779860415 23.541710006907003
O 0.0082118580045 1.917403239585 1.069708293093
O -0.0225718119955 1.839082664585 13.353159418093
O -1.6419605819955 4.813008339585 1.083763353093
O -1.6727442519955 4.734687764585001 13.367214478093
O 3.3411469930045 1.899210264585 1.077911258093
O 3.3103633230045 1.820889689585 13.361362383093
O 1.6909745530045002 4.794815364585 1.091966318093
O 1.6601908830045 4.716494789585001 13.375417443093
O -0.0076959175 -0.01958014375 3.07086278125
O -0.0384795875 -0.09790071875 15.354313906249997
O 5.0080019125 2.83963900625 3.10132377125
O 4.9772182425 2.76131843125 15.384774896249997
O 3.3252392175 -0.03777311875 3.07906574625
O 3.2944555475 -0.11609369375 15.36251687125
O 1.6750667775 2.8578319812500004 3.09312080625
O 1.6442831075000002 2.77951140625 15.376571931249996
O -0.0230877525 -0.05874043125 9.21258834375
O -0.0538714225 -0.13706100625 21.49603946875
O 4.9926100775 2.80047871875 9.24304933375
O 4.9618264075 2.72215814375 21.52650045875
O 3.3098473825 -0.07693340625 9.22079130875
O 3.2790637125 -0.15525398125 21.50424243375
O 1.6596749425 2.8186716937500003 9.234846368749999
O 1.6288912725 2.74035111875 21.51829749375
