40   
   
Al -1.30014793125 -0.09515246125 12.481497175
Al -0.18573541875 -0.01359320875 1.783071025
Al 2.0245071758142403 -0.1575783606434818 11.006505376098989
Al 6.09210402418576 -0.1656314293565182 2.399229753901011
Al 5.16342693043576 -0.2335974731065182 11.314584878901009
Al 2.95318426956424 -0.0896123168934818 2.091150251098989
Al 4.801247275 -0.10723206 -0.429416535
Al 3.53979000043576 1.3437558968934815 4.4117362939010105
Al 4.64491126456424 1.2717633231065182 9.023453331098988
In 9.446158539564241 1.164531263106518 8.594036796098989
Al 8.341037275435758 1.236523836893482 3.9823197589010104
Al 1.1051213304357592 -0.0719925781065182 4.611717313901011
Al 7.01148986956424 -0.2512172118934818 8.794017816098988
Al 2.3959779984554066 -0.1303919442309385 7.44036346874467
In 5.720633201544593 -0.1928178457690615 5.965371661255329
Al -0.742941675 -0.054372835 7.1322841
O 9.10558139048576 1.1952232997434815 12.18167962390101
O 8.684338027114244 1.3233809606565183 0.3958551108989888
O 3.88036714951424 1.3130638602565183 0.8240934660989888
O 4.301610512885759 1.1849061993434815 12.609917979101011
O -1.10698309575 -0.08101552415 10.627103309
O -0.37890025425 -0.02773014585 3.637464891
O 6.57352597368576 -0.2771551142565182 12.389659884701011
O 1.5430852263142405 -0.0460546757434818 1.016075245298989
O 1.8313423254554064 -0.1717152988309385 12.860899384744668
O 6.2852688745445935 -0.1514944911690615 0.5448357452553292
O 6.090609825244592 1.1690787051309384 10.047527951255327
O 2.091367837155407 1.3288913544690617 3.38648349394467
O 6.8953387147554075 1.3392084548690617 2.9582451387446707
O 10.894580702844593 1.1793958055309386 9.619289596055328
O 3.753327902044593 -0.1900398308690615 10.239509730455328
O 4.363283297955406 -0.1331699591309385 3.1662253995446705
O 3.1992127850500007 1.37444793785 7.999378844999998
O 4.988212082550001 1.35862044255 5.4369889598
O 9.78673575495 1.13383922215 5.006394244999999
O 7.99773645745 1.14966671745 7.568784130199998
O 2.58914284881424 -0.1162550060434818 5.585969460098989
O 5.52746835118576 -0.2069547839565182 7.819765669901011
O 0.66715736825 -0.09793047615 8.207359105799998
O 7.44945383175 -0.22527931385 5.1983760242
