80   
   
In -0.0323517475 -0.04819707 6.084480595
In -0.0970552425 -0.14459121 18.253441785
Ga 4.8425096175 2.87358854 6.132006765
In 4.7778061225 2.7771943999999995 18.300967955
Al 3.2483600725 0.005531675 6.101971775
In 3.1836565775 -0.090862465 18.270932965
Al 1.5617977975 2.819859795 6.114515585
Al 1.4970943025 2.723465655 18.283476775
Al 0.0 0.0 0.0
Ga -0.064703495 -0.09639414 12.16896119
In 4.874861365 2.92178561 0.04752617
Al 4.81015787 2.82539147 12.216487359999999
In 3.28071182 0.053728745 0.01749118
Ga 3.216008325 -0.042665395 12.18645237
Ga 1.594149545 2.868056865 0.03003499
In 1.52944605 2.771662725 12.19899618
In -0.0469770366590001 1.8698403805005 3.05643181154
In -0.1116805316590001 1.7734462405004998 15.225393001539997
Al -1.7335393116590003 4.684168500500499 3.06897562154
Al -1.7982428066590004 4.587774360500499 15.23793681154
In 3.233734783341 1.9235691255005 3.07392299154
In 3.1690312883410003 1.8271749855005 15.24288418154
Al 1.5471725083409995 4.737897245500499 3.08646680154
Al 1.4824690133409997 4.641503105500499 15.25542799154
Al 1.5764230866589997 0.9018223444995 9.142564368459999
Al 1.5117195916589998 0.8054282044994999 21.31152555846
Al -0.110139188341 3.7161504644995 9.15510817846
Ga -0.174842683341 3.6197563244995 21.32406936846
Ga 4.857134906659001 0.9555510894995 9.16005554846
In 4.792431411659001 0.8591569494995 21.32901673846
Ga 3.1705726316590006 3.7698792094995 9.17259935846
In 3.1058691366590008 3.6734850694995 21.34156054846
O -0.0575819394895001 1.8540413809545 5.050924550581
O -0.1222854344895001 1.7576472409544996 17.219885740581
O -1.7441442144895003 4.668369500954499 5.063468360580999
O -1.8088477094895004 4.571975360954499 17.232429550581
O 3.2231298805105 1.9077701259545 5.068415730580999
O 3.1584263855105 1.8113759859545 17.237376920581
O 1.5365676055104998 4.722098245954499 5.080959540581
O 1.4718641105104997 4.625704105954499 17.249920730581
O 1.5870279894895 0.9176213440455 7.148071629418999
O 1.5223244944894998 0.8212272040454999 19.317032819419
O -0.0995342855105 3.7319494640455 7.160615439418999
O -0.1642377805105 3.6355553240454994 19.329576629419
O 4.867739809489501 0.9713500890455 7.165562809418999
O 4.803036314489501 0.8749559490454999 19.334523999419
O 3.1811775344895006 3.7856782090455 7.178106619418999
O 3.1164740394895007 3.6892840690455 19.347067809419002
O 1.5658181838284997 0.8860233449534999 11.137057107501
O 1.5011146888285 0.7896292049535 23.306018297500998
O -0.1207440911715 3.7003514649535 11.149600917501
O -0.1854475861715 3.6039573249535 23.318562107501
O 4.846530003828501 0.9397520899535 11.154548287501
O 4.781826508828501 0.8433579499535 23.323509477501
O 3.1599677288285006 3.7540802099535 11.167092097501
O 3.095264233828501 3.6576860699535 23.336053287501
O -0.0363721338285001 1.8856393800465 1.061939072499
O -0.1010756288285001 1.7892452400464998 13.230900262499
O -1.7229344088285004 4.699967500046499 1.0744828824989998
O -1.7876379038285004 4.603573360046499 13.243444072499
O 3.2443396861715 1.9393681250465 1.0794302524989998
O 3.1796361911715003 1.8429739850465 13.248391442499
O 1.5577774111714997 4.753696245046499 1.091974062499
O 1.4930739161714996 4.657302105046499 13.260935252499
O -0.01617587375 -0.024098535 3.0422402975
O -0.08087936875 -0.120492675 15.211201487499997
O 4.85868549125 2.897687075 3.0897664675
O 4.79398199625 2.801292935 15.2587276575
O 3.26453594625 0.02963021 3.0597314775
O 3.1998324512500003 -0.06676393 15.228692667499997
O 1.57797367125 2.84395833 3.0722752875
O 1.51327017625 2.74756419 15.2412364775
O -0.04852762125 -0.072295605 9.1267208925
O -0.11323111625 -0.168689745 21.2956820825
O 4.82633374375 2.849490005 9.1742470625
O 4.76163024875 2.753095865 21.3432082525
O 3.23218419875 -0.01856686 9.1442120725
O 3.16748070375 -0.114961 21.3131732625
O 1.54562192375 2.79576126 9.1567558825
O 1.48091842875 2.69936712 21.3257170725
