40   
   
Al -0.0036153812094417 0.0037580634215333 1.8786329507375803
Al -0.0246555087905583 0.0256285465784667 12.81155389926242
In -1.4571565369903388 4.3254875824577 4.810890344250425
Al -0.0045982120767387 1.7933338623783266 4.822198189512062
In 1.4610716253072884 4.314756457839647 4.91304601163179
Ga 1.5283247746927122 0.9059865521603536 9.96418739836821
Al 4.446552936990339 0.8952554275423006 10.066343065749571
In 2.993994612076739 3.427409147621673 10.055035220487936
Al 0.0041432345342254 3.473315830294438 2.5774408646302
Al 2.985253165465775 1.7474271797055616 12.2997925453698
Al -0.0066205059520544 3.484504365349808 8.170521200918166
Al 2.996016905952055 1.7362386446501914 6.706712209081833
In -0.014135445 0.014693305 7.345093425
In 3.004169645 -0.011047155 0.10516414
Ga -1.495336 2.606725355 -0.01164086
Al 1.5088336450000002 2.5956782 0.09352328
O 1.5001009847157718 2.604019954111124 3.796064709534821
O 0.0063672372397718 5.2079522028932415 3.7844363227163114
O -1.5008496925096109 2.615055272084541 3.6910132529108313
O 4.490246092509612 2.6056877379154586 11.186220157089169
O 1.4892954152842286 2.616723055888876 11.08116870046518
O 2.983029162760229 0.0127908071067581 11.092797087283689
O -0.0171699036180767 3.495470098474811 13.652224213056144
O 3.0065663036180768 1.7252729115251888 1.225009196943854
O -0.0073235604844728 0.0076125872149272 3.805485852202811
O -0.0209473295155272 0.0217740227850728 10.884700997797188
O -1.415216737880005 4.297940387680249 1.2388503985600563
O 0.0023829640777551 1.8267278399092228 1.249886098674634
O 1.4327786246221683 4.287467528312536 1.3385474924042788
O 1.5566177753778316 0.9332754816874652 13.53868591759572
O 4.404613137880005 0.9228026223197504 13.638383011439943
O 2.9870134359222447 3.3940151700907766 13.627347311325364
O -1.6268807030328694 4.427601212753188 8.632381966612957
O -0.0124477701112691 1.6132616528189987 8.644949969892174
O 1.6165578358449426 4.41567420046492 8.745921967641742
O 1.3728385641550576 0.8050688095350813 6.131311442358258
O 4.6162771030328695 0.7931417972468133 6.2448514433870415
O 3.001844170111269 3.6074813571810016 6.2322834401078255
O -0.0028156659597332 3.480549366092029 6.193441228495968
O 2.992212065959734 1.7401936439079702 8.683792181504032
