40   
   
Ga 8.218867017908838 -0.0013802104265542 13.570759281581616
Al 4.98770189 0.016891505 -0.039396865
Al 9.12283098959116 1.4827087166765542 2.3025669821683827
Al 4.135129099591162 1.4658172116765542 2.341963847168383
Ga 4.9509312425 0.00533522375 5.29659387125
Ga 1.6339679370911624 -0.0033577170734458 4.137082775918383
Ga -0.04902753 -0.015408375 7.114654315
Ga 8.28015143040884 0.0178802583234458 4.677441387831617
Al 2.43987675 1.44991446 7.098198965
Al 7.42757864 1.466805965 7.0588021
Ga 8.243380782908838 0.0063239770734458 10.013432124081616
Al 4.9264174775 -0.00236896375 8.853921028749998
Ga 3.2434220104088376 -0.0144196216765542 11.831492567831615
Ga 1.5971972895911624 -0.0149139983234458 9.473073512168384
Al 5.732326290408837 1.450903213323446 11.815037217831616
Ga 10.72002818040884 1.467794718323446 11.775640352831616
O 3.3833026051000004 0.00886679965 1.18270136535
O 1.5731737998911623 -0.0224641020734458 12.959254126518385
O 5.7726507139 1.41557672125 1.16690422935
O 10.759956870699998 1.54901839285 1.12776681095
O 8.304174920108839 0.0254303620734458 1.191260773481617
O 6.494046114900001 -0.00590053965 12.96781353465
O 9.0825065661 1.51803520875 12.95069997065
O 4.0952004093 1.3845935371500002 12.98983738905
O 6.675752145508837 0.0098555529734458 5.899539618181617
O 4.9636784003 0.00934140125 3.44678374935
O 9.065100254308835 1.416565474573446 5.883742482181617
O 4.0770026311088365 1.516224136173446 5.923398793781617
O 1.6212207792911624 -0.0073638945734458 5.986892897818383
O 9.884550715308839 0.0259049636734458 3.4553431574816167
O 12.473011166508838 1.549840712073446 3.438229593481617
O 7.485705009708837 1.416399040473446 3.4773670118816167
O -0.0072019953088376 -0.0229387036734458 10.695171742518385
O 8.256127940708838 0.0103301545734458 8.163622002181617
O 2.3821461134911615 1.3837712179265542 10.679374606518383
O 7.369452270291162 1.5172128895265542 10.640237188118382
O 4.9136703197000005 -0.00637514125 10.70373115065
O 3.2015965744911625 -0.0068892929734458 8.250975281818384
O 5.790057025691161 1.517046455426554 8.233861717818382
O 10.778154648891162 1.4173877938265542 8.194205406218382
