40   
   
In 0.0876573022251403 3.692742771781951 14.393877448888436
Ga 1.6377936769024 2.7768245915715495 2.4985377117133374
In 3.2339746469024 -0.0217282134284501 2.486552456713337
In -1.5843943080976002 2.7937969665715494 2.514318856713337
Ga 3.25865002087246 1.8323713816464984 5.617199134398224
In 0.0206266581523999 -0.0083227171784501 4.379083765463338
Ga -1.5508789378775405 4.6443296828964975 7.521715698148224
In 0.0453020321224596 1.8457768778964985 7.509730443148224
In 1.6713090471224596 4.6273573078964985 7.505934553148224
Ga 0.0434573209751403 3.710577165531952 5.010126630138439
In 0.0699773097251403 3.6998765292819513 10.640377121388436
In 3.2763300133724598 1.8252376241464985 9.370699461898225
In 4.897186260975141 0.8807844705319512 12.489360885138435
In 3.3010052909751404 3.6793372755319513 12.501346140138436
In 1.6749982759751405 0.8977568455319512 12.505142030138435
In 0.0471466469023999 -0.0190233534284501 10.009334256713336
O 4.780019295172461 0.9396784827464988 1.254253506498224
O 3.24768556397246 3.626289175546499 1.265759351298224
O 1.6867188295724596 0.9559719627464988 1.269403405698224
O 0.0644730395523999 -0.0260144357784501 13.687764577663335
O 0.0261309283251403 3.717568247881952 1.3316963091884382
O 1.7549607390724595 2.7179305230464994 13.733645089798223
O 3.28729447027246 0.0313198302464988 13.722139244998225
O 4.84826120467246 2.701637043046499 13.718495190598224
O 1.5913465840251408 2.807183630381951 6.277431493488438
O 0.0590128528251409 5.493794323181951 6.288937338288438
O -1.5019538815748594 2.823477110381951 6.292581392688438
O 3.2494564247724598 1.8360809355464984 3.665378964098224
O 0.0298202542523999 -0.0120322710784501 6.330903935763337
O -1.5044319420748598 4.613970700681952 3.742821766788438
O 0.0279017891251404 1.9273600078819515 3.7313159219884384
O 1.5888685235251403 4.597677220681952 3.7276718675884375
O -1.5973260300475998 4.67468872142155 11.300609630063336
O 0.0627021787524 1.7641938042215497 11.288144964863337
O 1.7537494743524007 4.65703745142155 11.284197239263335
O 0.0607837136251403 3.703586083181951 8.688556951088438
O 3.28552360947246 1.8215280702464989 11.322519632198224
O 4.943633353852401 0.8504254317215499 8.710467103363337
O 3.2836051450524 3.7609203489215495 8.722931768563338
O 1.5925578494524002 0.8680767017215499 8.726879494163338
