40   
   
Ga -0.0075317209607148 -0.0031849316416382 2.006251133922348
In -0.0513634390392852 -0.0217200083583618 13.681860806077651
In -1.5633332074186983 4.672303730192974 5.121741360055048
In -0.0044278114775503 1.9237741201108 5.123149782185788
In 1.5963866911079931 4.648572268987564 5.134063358618936
In 1.6406347588920076 0.9366090710124362 10.576518541381065
In 4.800354657418699 0.912877609807026 10.588840539944952
In 3.2414492614775514 3.6614072198892 10.587432117814211
In 0.0186476902881314 3.752067332620912 2.7007569026024387
Ga 3.218373759711868 1.833114007379088 13.009824997397562
In -0.0037758067484998 3.74258512986796 8.67378306633013
In 3.2407972567484995 1.8425962101320388 7.036798833669871
In -0.02944758 -0.01245247 7.84405597
In 3.252773285 -0.02443035 0.01268488
In -1.60481498 2.82947349 -0.0014499
In 1.647958305 2.80504314 0.01123498
O 1.6313790610456615 2.7997853402389503 3.96533477129852
O 0.0282836402967316 5.626227049394415 3.9638864248663697
O -1.6179088773794608 2.8241895131189256 3.95266348314744
O 4.854930327379461 2.760991826881074 11.75791841685256
O 1.6056423889543383 2.7853959997610493 11.74524712870148
O 3.208737809703268 -0.0410457093944158 11.74669547513363
O -0.025752775405801 3.7332917501438554 14.527865887356723
O 3.2627742254058005 1.8518895898561445 1.1827160126432748
O -0.0152567629283232 -0.0064516127526288 4.063997867763269
O -0.0436383970716768 -0.0184533272473712 11.62411407223673
O -1.5111545009929743 4.65612121283641 1.306185785899444
O 0.0102328242271426 1.9737402789717915 1.3075603116300278
O 1.572520632456741 4.632960895102653 1.318211231757345
O 1.6645008175432587 0.952220444897346 14.392370668242656
O 4.748175950992975 0.92906012716359 14.404396114100557
O 3.226788625772857 3.611441061028208 14.40302158836997
O -1.7539539043021768 4.7687990730274485 9.206823399053023
O -0.0213224723310889 1.713970469232305 9.208388777208464
O 1.757888460645619 4.742422953143488 9.220518573931551
O 1.4791329893543808 0.8427583868565113 6.490063326068449
O 4.990975354302177 0.8163822669725512 6.503758500946978
O 3.258343922331089 3.8712108707676953 6.502193122791537
O 0.004150603071713 3.745936963210256 6.562397265836274
O 3.2328708469282863 1.8392443767897435 9.148184634163727
