40   
   
Al -0.009384055066341 0.0098831397246955 1.847260954481582
In -0.063995644933659 0.0673992102753045 12.597608955518416
Al -1.4905745056452049 4.35476878562183 4.682934881525903
Al -0.0243450926969845 1.8170481651177093 4.70429327432218
Ga 1.4407574319807903 4.355805718080552 4.697968881947952
Ga 1.5023621180192095 0.9485239719194488 9.733879738052046
In 4.433694055645204 0.9495609043781708 9.748913738474096
Ga 2.967464642696984 3.487281524882291 9.727555345677821
Ga -0.0133754428652126 3.497258857217443 2.461723830265451
Al 2.9564949928652124 1.807070832782557 11.970124789734546
In -0.0413137231160666 3.52668301611622 7.9614032202426275
In 2.9844332731160663 1.7776466738837804 6.470445399757372
Al -0.03668985 0.038641175 7.222434955
Al 3.017659325 0.00106747 0.01547675
Al -1.5094097 2.6124562 -0.021987395
In 1.508249625 2.61352367 -0.006510645
O 1.4881376849482484 2.6339350094563323 3.634228298766869
O -0.0196546825582019 5.243591962638032 3.6122644632606113
O -1.526288218085014 2.6328686832504373 3.618768132104494
O 4.469407768085014 2.671461006749563 10.813080487895505
O 1.4549818650517516 2.670394680543668 10.797620321233127
O 2.9627742325582007 0.0607377273619676 10.819584156739385
O -0.0686956568264456 3.5555212395578843 13.35156521777966
O 3.0118152068264448 1.7488084504421155 1.0802834022203387
O -0.019008976062744 0.020019955671972 3.7419366166479433
O -0.054370723937256 0.057262394328028 10.702933293352055
O -1.4374485368372447 4.315622126903215 1.1699426836308773
O -0.0065067679958926 1.8389766569234236 1.1907870454323903
O 1.4233352333187972 4.316634103578592 1.1846148617816572
O 1.5197843166812024 0.9876955864214096 13.247233758218343
O 4.380568086837244 0.9887075630967848 13.261905936369123
O 2.9496263179958926 3.465353033076577 13.241061574567608
O -1.673040784565176 4.469125356935594 8.443402559312874
O -0.043413243362856 1.6485985154128744 8.467141153580087
O 1.5849618279700437 4.470277846224225 8.460111964352674
O 1.358157722029956 0.834051843775774 5.971736655647325
O 4.616160334565176 0.8352043330644061 5.988446060687124
O 2.9865327933628563 3.6557311745871255 5.964707466419913
O -0.0314379103211906 3.5162819648588814 6.017339247815684
O 2.9745574603211904 1.7880477251411184 8.414509372184316
