40   
   
In 0.0706394326823741 3.4889361065091644 13.763832952734782
Ga 1.5405255968846208 2.630113176565327 2.3901336761865286
Ga 3.0581870118846206 -0.0118137184346735 2.3785484611865284
Ga -1.5067637081153793 2.6368598865653268 2.4042450211865285
Al 3.0512781604330046 1.7522889656755094 -0.0110916501713104
In 3.075798000433005 1.7408881969255094 5.37239280607869
Ga 0.0190709868846208 -0.0088672646846735 4.187154624936529
Al -1.4809794395669953 4.38576154567551 7.192584184828689
Ga 0.0366819754330048 1.7438346506755094 7.18099896982869
In 1.566309865433005 4.37901483567551 7.1784728398286894
Al 0.0542928726823741 3.496536619009164 10.174843315234781
Ga 3.0921445604330047 1.7332876844255094 8.961382443578689
In 4.6274168726823754 0.8440627577591642 11.943641573984785
Al 3.1097554576823736 3.4859896527591645 11.955226788984781
In 1.5801275676823745 0.8508094677591641 11.957752918984783
Ga 0.0435908268846208 -0.0202680334346735 9.570639081186528
O 4.517620221233005 0.9021292378255094 1.2009419273786897
O 3.0606652628330044 3.4383790570255095 1.2120637337786897
O 1.5922224884330047 0.9086060794255094 1.2144888185786895
O 0.0596104556846208 -0.0277165356846735 13.087848925936528
O 0.0137534038823741 3.5153858900091643 1.274149014234782
O 1.6503223396330045 2.5720466435255096 13.132833322278689
O 3.107277298033005 0.0357968243255093 13.12171151587869
O 4.575720072433004 2.565569801925509 13.11928643107869
O 1.4961150934823746 2.657777659909164 6.003392436534782
O 0.0391601350823745 5.194027479109164 6.014514242934782
O -1.4292826393176257 2.664254501509164 6.016939327734782
O 3.0672977892330047 1.7448404634255097 3.506118194578689
O 0.0275711980846208 -0.0128195311846735 6.053429236436529
O -1.436569028117626 4.358097115609165 3.579325281434782
O 0.0203859302823744 1.8218472964091643 3.5682034750347817
O 1.4888287046823745 4.351620274009164 3.5657783902347817
O -1.5253899423153792 4.413426028715326 10.805843088736529
O 0.0529779292846207 1.6658220579153264 10.793794465136529
O 1.6437909348846214 4.406409450315326 10.79116728993653
O 0.0457926614823741 3.500488885509164 8.30856870373478
O 3.100644771633005 1.7293354179255094 10.82765705507869
O 4.671827376084621 0.8163982744153265 8.330382813636529
O 3.0934595044846205 3.5640022452153266 8.34243143723653
O 1.5026464988846209 0.8234148528153266 8.345058612436532
