30   
   
Ga -0.0004308675 0.0023251359 1.9516007359
Al -0.0019166175 0.0103428459 8.6812584459
Ga -0.0025406325 0.0137102841 11.5077146841
Ga -0.0010548825 0.0056925741 4.778056974099999
Ga 2.480763320793144 1.455518904925168 6.4366462877216
Ga 2.479277570793144 1.463536614925168 13.1663039977216
Ga 2.481625055793144 1.450868633125168 2.5334448159216
Al 2.480139305793144 1.458886343125168 9.2631025259216
Ga -0.0152177957931441 2.886335456874832 10.9211530140784
Al -0.0137320457931441 2.878317746874832 4.1914953040784
Al -0.0143560607931441 2.8816851850748315 7.017951542278399
Ga -0.0128703107931441 2.873667475074832 0.2882938322783997
O 1.50734121969 0.01078916478 3.36499215988
O 1.7204141207199997 3.0158634179899995 3.36154069477
O -0.7606052054100001 1.30654265223 3.36323612035
O 0.74599313928 1.32134067201 10.09305713523
O -1.7501627645900002 3.00828417777 10.09082274965
O 3.46686251031 0.02762351522 10.09486222012
O 3.988535407983144 1.463982933805168 7.8500377117015985
O 1.7322295490131443 0.1478885170151681 7.8513038365916
O 1.720588982883144 2.7597364212551683 7.8482816721715984
O 3.230158827573144 2.7584990210351683 1.1187872670516
O 3.241799393703144 0.1466511167951681 1.1218094314716005
O 0.9738529686031444 1.442404604245168 1.1200533919416005
O 1.492554291396856 2.894799485754832 12.3345444380584
O -0.7637515675731441 1.578705068964832 12.3358105629484
O -0.775392133703144 4.190552973204831 12.332788398528399
O 0.7341777109868562 4.189315572984831 5.6032939934084
O 0.7458182771168558 1.577467668744832 5.6063161578284
O -1.522128147983144 2.873221156194832 5.6045601182984
