80   
   
Ga -0.0337293975 -0.0091960925 6.0128759625
Ga -0.1011881925 -0.0275882775 18.0386278875
Ga 4.7923481975 2.6535820875 6.0431613475
Ga 4.7248894025 2.6351899025 18.0689132725
Ga 3.1478279275 -0.0710306275 6.0302387775
Ga 3.0803691325 -0.0894228125 18.0559907025
Ga 1.6107908725 2.7154166225000003 6.0257985325
Ga 1.5433320775 2.6970244375 18.0515504575
Ga 0.0 0.0 0.0
Ga -0.067458795 -0.018392185 12.025751925
Ga 4.826077595 2.66277818 0.030285385
Ga 4.7586188 2.644385995 12.05603731
Ga 3.181557325 -0.061834535 0.017362815
Ga 3.11409853 -0.08022672 12.04311474
Ga 1.64452027 2.724612715 0.01292257
Ga 1.5770614749999998 2.70622053 12.038674495
Ga 0.0189594568095 1.8322382400845 3.0092651401725
Ga -0.0484993381905 1.8138460550845 15.035017065172498
Al -1.5180775981905 4.6186854900845 3.0048248951725
Ga -1.5855363931905 4.6002933050845005 15.030576820172499
Ga 3.2005167818095 1.7704037050845 3.0266279551725
Ga 3.1330579868095003 1.7520115200845 15.052379880172499
Ga 1.6634797268094998 4.5568509550845 3.0221877101725
Ga 1.5960209318095 4.5384587700845005 15.047939635172499
Ga 1.5581020181905 0.8739822899155 9.0294093548275
Ga 1.4906432231904998 0.8555901049155 21.055161279827495
Ga 0.0210649631905 3.6604295399155 9.0249691098275
Ga -0.0463938318095 3.6420373549155 21.0507210348275
Ga 4.7396593431905 0.8121477549155 9.0467721698275
Al 4.6722005481905 0.7937555699155 21.0725240948275
Ga 3.2026222881905 3.5985950049155 9.0423319248275
Ga 3.1351634931905 3.5802028199155 21.068083849827495
O 0.007902960309 1.829223760963 4.98028588068
O -0.059555834691 1.810831575963 17.00603780568
O -1.529134094691 4.615671010963 4.97584563568
O -1.596592889691 4.597278825963 17.00159756068
O 3.1894602853090004 1.767389225963 4.99764869568
O 3.122001490309 1.748997040963 17.02340062068
O 1.6524232303089998 4.553836475963 4.99320845068
O 1.584964435309 4.535444290963 17.01896037568
O 1.569158514691 0.876996769037 7.058388614319999
O 1.5016997196909998 0.858604584037 19.08414053932
O 0.032121459691 3.663444019037 7.05394836932
O -0.035337335309 3.645051834037 19.07970029432
O 4.750715839691 0.8151622340369999 7.07575142932
O 4.683257044691 0.796770049037 19.10150335432
O 3.213678784691 3.601609484037 7.071311184319999
O 3.146219989691 3.583217299037 19.09706310932
O 1.54704552169 0.870967810794 11.000430095335
O 1.4795867266899998 0.852575625794 23.026182020335
O 0.01000846669 3.657415060794 10.995989850335
O -0.05745032831 3.639022875794 23.021741775335002
O 4.72860284669 0.809133275794 11.017792910335
O 4.66114405169 0.790741090794 23.043544835335002
O 3.19156579169 3.595580525794 11.013352665335
O 3.12410699669 3.577188340794 23.039104590335
O 0.03001595331 1.835252719206 1.038244399665
O -0.03744284169 1.816860534206 13.063996324665
O -1.50702110169 4.621699969206 1.033804154665
O -1.57447989669 4.603307784206001 13.059556079665
O 3.2115732783100004 1.773418184206 1.055607214665
O 3.14411448331 1.755025999206 13.081359139665
O 1.6745362233099998 4.559865434206 1.051166969665
O 1.60707742831 4.541473249206001 13.076918894665
O -0.01686469875 -0.00459804625 3.00643798125
O -0.08432349375 -0.02299023125 15.03218990625
O 4.80921289625 2.65818013375 3.03672336625
O 4.74175410125 2.63978794875 15.06247529125
O 3.16469262625 -0.06643258125 3.02380079625
O 3.09723383125 -0.08482476625 15.04955272125
O 1.6276555712499998 2.72001466875 3.01936055125
O 1.56019677625 2.70162248375 15.04511247625
O -0.05059409625 -0.01379413875 9.01931394375
O -0.11805289125 -0.03218632375 21.04506586875
O 4.77548349875 2.6489840412500003 9.04959932875
O 4.7080247037500005 2.63059185625 21.07535125375
O 3.13096322875 -0.07562867375 9.03667675875
O 3.06350443375 -0.09402085875 21.06242868375
O 1.59392617375 2.7108185762500003 9.03223651375
O 1.5264673787499998 2.69242639125 21.05798843875
