80   
   
Al -0.03258593 -0.0329855225 6.0578480175
Ga -0.09775779 -0.0989565675 18.1735440525
In 4.825917420000001 2.7877346525 6.098420462499999
Al 4.76074556 2.7217636075 18.2141164975
Ga 3.21077193 -0.0251219325 6.0751267025
In 3.14560007 -0.0910929775 18.1908227375
Ga 1.5825595600000002 2.7798710625 6.081141777499999
Ga 1.5173877000000002 2.7139000175 18.1968378125
Ga 0.0 0.0 0.0
In -0.06517186 -0.065971045 12.115696035
In 4.85850335 2.820720175 0.040572445
Ga 4.79333149 2.75474913 12.15626848
Al 3.24335786 0.00786359 0.017278685
Ga 3.178186 -0.058107455 12.13297472
Ga 1.6151454900000002 2.812856585 0.02329376
Ga 1.5499736300000002 2.74688554 12.138989795
Ga -0.0206481561039998 1.855936503764 3.0386926434555
Al -0.0858200161039998 1.789965458764 15.154388678455497
Ga -1.6488605261040004 4.660929498764 3.0447077184555
Al -1.7140323861040003 4.594958453764001 15.160403753455501
Ga 3.222709703896 1.863800093764 3.0559713284555
In 3.157537843896 1.7978290487639998 15.171667363455501
Al 1.5944973338959996 4.668793088764001 3.0619864034555
Al 1.5293254738959996 4.602822043764001 15.177682438455498
In 1.5706217861039995 0.890949036236 9.100297151544499
Ga 1.5054499261039995 0.8249779912359999 21.215993186544495
In -0.0575905838959997 3.695942031236 9.1063122265445
Ga -0.1227624438959997 3.629970986236 21.222008261544495
In 4.813979646104 0.898812626236 9.117575836544502
Ga 4.748807786104 0.8328415812359999 21.233271871544495
Al 3.1857672761040003 3.703805621236 9.123590911544497
Ga 3.1205954161040004 3.637834576236 21.239286946544496
O -0.0313298239579998 1.8451238494885 5.024455223592
O -0.0965016839579998 1.7791528044885 17.140151258591995
O -1.6595421939580002 4.6501168444885 5.030470298591999
O -1.724714053958 4.584145799488501 17.146166333592
O 3.212028036042 1.8529874394885 5.041733908592
O 3.146856176042 1.7870163944884998 17.157429943592
O 1.5838156660419995 4.6579804344885005 5.047748983591999
O 1.5186438060419998 4.592009389488501 17.163445018591997
O 1.5813034539579998 0.9017616905115 7.114534571407999
O 1.5161315939579998 0.8357906455115 19.230230606408
O -0.0469089160419997 3.7067546855115 7.120549646408
O -0.1120807760419997 3.6407836405115 19.236245681408
O 4.824661313958 0.9096252805115 7.131813256407999
O 4.759489453958 0.8436542355115 19.247509291408
O 3.1964489439580004 3.7146182755115 7.1378283314079995
O 3.1312770839580004 3.6486472305115 19.253524366408
O 1.55994011825 0.8801363819604999 11.086059731681
O 1.4947682582499997 0.8141653369605 23.201755766681
O -0.0682722517499997 3.6851293769605 11.092074806681
O -0.1334441117499997 3.6191583319605 23.207770841680997
O 4.80329797825 0.8879999719605 11.103338416681002
O 4.73812611825 0.8220289269605 23.219034451680997
O 3.1750856082500003 3.6929929669605 11.109353491681
O 3.1099137482500003 3.6270219219605 23.225049526680998
O -0.0099664882499998 1.8667491580395 1.052930063319
O -0.0751383482499998 1.8007781130395 13.168626098319
O -1.6381788582500003 4.6717421530395 1.0589451383189998
O -1.7033507182500005 4.605771108039501 13.174641173319
O 3.23339137175 1.8746127480395 1.070208748319
O 3.1682195117500003 1.8086417030395 13.185904783319
O 1.6051790017499996 4.679605743039501 1.0762238233189998
O 1.5400071417499996 4.613634698039501 13.191919858319
O -0.016292965 -0.01649276125 3.02892400875
O -0.081464825 -0.08246380625 15.144620043749997
O 4.842210385 2.80422741375 3.06949645375
O 4.777038525 2.73825636875 15.18519248875
O 3.2270648950000003 -0.00862917125 3.04620269375
O 3.1618930350000003 -0.07460021625 15.16189872875
O 1.598852525 2.79636382375 3.05221776875
O 1.533680665 2.73039277875 15.167913803749997
O -0.048878895 -0.04947828375 9.08677202625
O -0.114050755 -0.11544932875 21.20246806125
O 4.809624455000001 2.77124189125 9.12734447125
O 4.744452595 2.70527084625 21.24304050625
O 3.194478965 -0.04161469375 9.10405071125
O 3.129307105 -0.10758573875 21.21974674625
O 1.566266595 2.76337830125 9.11006578625
O 1.501094735 2.69740725625 21.22576182125
