30   
   
In -0.00476458928616 0.0065551146642 2.13877875338968
In -0.02087815928616 0.0287241396642 9.372006863389679
In -0.02746255071384 0.0377829353358 12.32767746661032
In -0.01134898071384 0.0156139103358 5.09444935661032
In 2.6893125882549183 1.6274352424590106 6.96211681527631
Ga 2.6731990182549183 1.6496042674590108 14.195344925276308
In 2.6988417668272384 1.6143250131306106 2.684559308496951
Ga 2.682728196827238 1.6364940381306108 9.917787418496948
In -0.0647952768272382 3.1812875268693888 11.773453851503048
In -0.0486817068272382 3.1591185018693886 4.540225741503049
In -0.0552660982549182 3.1681772975409888 7.49589634472369
Ga -0.0391525282549182 3.1460082725409886 0.2626682347236894
O 3.7710222306544 0.0575777381196 3.6249385465588
O 0.8087828042868 1.4666849652564002 3.6140274391384
O -1.9377017599412 3.260265324124 3.6024331193028
O 1.8252636857132003 3.3289275747436 10.8439857208616
O -0.8764367100588 1.468319325876 10.8435788706972
O 1.6449355893456 0.0537882018804 10.8535188434412
O 1.0169144481954782 1.6114299759144108 8.43627543844543
O 3.502859981827879 3.0875650930512104 8.43736550102503
O 3.5382867475998783 0.1968988519188108 8.44621541118943
O 1.885294373254278 0.1541951625384108 1.2093106227482304
O 1.8498676074822784 3.0448614036708106 1.2004607125838305
O 4.371239906886678 1.6303302796752108 1.2104006853278306
O -1.737193416886678 3.1652822603247888 13.247612474672168
O 0.748752116745722 4.641417377461589 13.24870253725177
O 0.7841788825177217 1.7507511363291892 13.257552447416169
O -0.868813491827878 1.7080474469487892 6.020647658974969
O -0.904240257599878 4.5987136880811885 6.01179774881057
O 1.617132041804522 3.1841825640855888 6.02173772155457
