30   
   
O 1.69493703742 0.03547854068 3.66778450062
O 1.8603583694599997 3.35475704772 3.6572154823
O -0.88199180938 1.4768520866 3.65615222458
O 0.80324980054 1.52466113228 10.9872655777
O -1.98892101062 3.3274101334 10.97386244542
O 3.80080224258 0.08899943932 10.99999729938
O 4.427646785438112 1.6870032382496456 8.554100268568172
O 1.8906782374781128 0.1761855852896458 8.552365600248171
O 1.8507179386381123 3.1283767841696455 8.542467992528174
O 3.574741258558112 3.126863809849646 1.2202659356481722
O 3.6147015573981127 0.1746726109696458 1.2301635433681724
O 1.0377727105981127 1.6160461568896456 1.2185312673281723
O 1.6258354594018871 3.263372023110354 13.42594979267183
O -0.9111330885581128 1.7525543701503543 13.424215124351827
O -0.9510933873981128 4.7047455690303535 13.414317516631828
O 0.7729299325218878 4.703232594710354 6.0921154597518274
O 0.812890231361887 1.751041395830354 6.102013067471828
O -1.7640386154381127 3.192414941750354 6.090380791431827
In -0.00577847479 0.00734898098 2.18334399609
In -0.02516932979 0.03200999098 9.51000170109
In -0.03300323521 0.04197303902 12.46997141391
In -0.01361238021 0.01731202902 5.143313708909999
Ga 2.726931273228113 1.6588736785496456 7.069659764038172
In 2.707540418228113 1.6835346885496456 14.396317469038173
In 2.7384882228081127 1.6441757165896456 2.7029717718581723
In 2.719097367808113 1.6688367265896455 10.029629476858169
In -0.0748800528081131 3.2352424634103545 11.941509288141827
In -0.0554891978081131 3.210581453410354 4.614851583141827
In -0.0633231032281131 3.2205445014503544 7.5748212959618275
In -0.0439322482281131 3.1958834914503544 0.2481635909618276
