80   
   
Ga 1.70383222536 7.63627602772 6.6471806984
Al 6.935354355360001 7.61121339772 6.6195421334
Ga 3.61561865964 1.3231833942999998 1.8645072898
Ga 8.84714078964 1.2981207642999997 1.8368687248
Ga 1.00847558124 3.14568324384 1.87319094046
Ga 6.239997711239999 3.12062061384 1.84555237546
Al 4.310975303760001 5.81377617818 6.63849704774
In 9.54249743376 5.7887135481800005 6.61085848274
Ga 0.96451491267 5.891351886890001 -0.021676242495
Al 6.19603704267 5.86628925689 -0.049314807495
Ga 4.33498676733 3.05740616811 4.758742657495
In 9.56650889733 3.03234353811 4.731104092495
Ga 1.71137565513 1.42125327343 4.777239941275
Ga 6.94289778513 1.3961906434300002 4.749601376275
Ga 3.638758524870001 7.554665611569998 9.540084273725
Ga 8.870280654870001 7.529602981569998 9.512445708725
Ga 0.9307574843400002 0.29173035543 9.565271545680002
Ga 6.16227961434 0.2666677254299999 9.53763298068
Al 4.41927543066 8.68413420791 4.73289215372
Ga 9.650797560660001 8.65907157791 4.70525358872
In 1.78474251366 4.75415980411 4.75789796102
Ga 7.01626464366 4.72909717411 4.73025939602
Ga 3.5652904013400004 4.2217047592300005 9.54026573838
In 8.79681253134 4.19664212923 9.51262717338
Ga 3.63013857465 1.4109653940500002 7.516738916135
In 8.861660704650001 1.38590276405 7.489100351135
Ga 1.6984261603500002 7.55338297737 2.719395476065
Ga 6.92994829035 7.52832034737 2.691756911065
In 4.306251851549999 5.874246972150001 2.710305042685
Ga 9.53777398155 5.84918434215 2.682666477685
In 1.02231288345 3.09010139927 7.525829349515
In 6.253835013450001 3.06503876927 7.498190784515
O 4.41068841597 5.99787844155 8.515249242535
O 9.64221054597 5.97281581155 8.487610677535
O 0.92861040903 2.97222802583 3.751899803265
O 6.16013253903 2.9471653958300004 3.724261238265
O 3.53746001943 1.50813778709 3.742199195805
O 8.76898214943 1.48307515709 3.714560630805
O 1.80183880557 7.461968680289998 8.524949849995
O 7.03336093557 7.436906050289998 8.497311284995
O 2.7787809304500004 0.08456844375 6.011243094295
O 8.01030306045 0.05950581375 5.983604529295
O 2.53378393455 8.871197105390001 1.197529833105
O 7.76530606455 8.846134475390002 1.169891268105
O 5.12898128895 4.53982998025 1.195964880045
O 10.36050341895 4.51476735025 1.168326315045
O 0.18358357605 4.415935568889999 6.012808047355
O 5.41510570605 4.39087293889 5.985169482355
O 0.11988191355 7.41302922427 1.137771033485
O 5.351404043549999 7.387966594269998 1.110132468485
O 5.19187283145 1.54230175159 5.917717769115
O 10.42339496145 1.51723912159 5.890079204115
O 2.58268191465 2.93471006817 5.927621767935
O 7.814204044650001 2.90964743817 5.899983202935
O 2.7290728303500003 6.020620907690001 1.127867034665
O 7.960594960349998 5.995558277690001 1.100228469665
O 5.152966900859999 7.474768358629999 6.0641108180200005
O 10.38448903086 7.449705728629999 6.03647225302
O 0.16050934914 1.48148608545 1.3171067497800002
O 5.392031479140001 1.45642345545 1.28946818478
O 2.78352317514 2.99219561635 1.29896540088
O 8.01504530514 2.96713298635 1.27132683588
O 2.5299530748600003 5.96405882773 6.08225216692
O 7.761475204859998 5.93899619773 6.05461360192
O 1.93967999493 1.5377145152500002 8.282203666435
O 7.17120212493 1.5126518852500004 8.254565101435
O 3.39688467507 7.430925267309998 3.467611458165
O 8.62840680507 7.4058626373099985 3.439972893165
O 0.77429748207 6.00981813911 3.485498567865
O 6.005819612070001 5.98475550911 3.457860002865
O 4.56226718793 2.9588216434500003 8.264316556735
O 9.79378931793 2.9337590134500005 8.236677991735
O 4.41916441398 0.01245262859 8.59910075574
O 9.650686543980001 -0.01261000141 8.57146219074
O 0.92084326602 8.95803409041 3.80217189926
O 6.15236539602 8.93297146041 3.77453333426
O 3.51535800762 4.4833031209500005 3.80101372892
O 8.746880137620002 4.45824049095 3.77337516392
O 1.82464967238 4.48718359805 8.60025892608
O 7.056171802380001 4.46212096805 8.57262036108
