80   
   
Ga -0.02513235 -0.012283475 6.054814735
Ga -0.07539705 -0.036850425 18.164444205
In 4.8795424800000005 2.6697442 6.080044395
Ga 4.82927778 2.64517725 18.189673865
Ga 3.2012136100000004 -0.08714629 6.06763969
Ga 3.1509489100000003 -0.11171324 18.17726916
Ga 1.65319652 2.744607015 6.06721944
Ga 1.60293182 2.720040065 18.17684891
Ga 0.0 0.0 0.0
Ga -0.0502647 -0.02456695 12.10962947
In 4.90467483 2.682027675 0.02522966
Ga 4.854410130000001 2.657460725 12.13485913
In 3.22634596 -0.074862815 0.012824955
Ga 3.17608126 -0.099429765 12.122454425
Ga 1.67832887 2.75689049 0.012404705
Ga 1.62806417 2.73232354 12.122034175
Ga 0.0308667412739999 1.8565532393735 3.0314017863515
Ga -0.0193979587260001 1.8319862893735 15.1410312563515
Ga -1.5171503487260003 4.6883065443735 3.0309815363515
Ga -1.5674150487260003 4.6637395943735 15.1406110063515
Ga 3.2572127012740006 1.7816904243735 3.0442267413515
Ga 3.2069480012740006 1.7571234743734998 15.153856211351501
Ga 1.709195611274 4.6134437293735 3.0438064913515
Ga 1.658930911274 4.5888767793735 15.153435961351502
Ga 1.597197428726 0.8757703006265 9.0906323886485
Ga 1.546932728726 0.8512033506264999 21.200261858648496
Ga 0.0491803387260001 3.7075236056265 9.0902121386485
Ga -0.0010843612739999 3.6829566556265 21.199841608648494
Ga 4.823543388726001 0.8009074856264999 9.103457343648499
Ga 4.773278688726 0.7763405356264999 21.213086813648495
Ga 3.2755262987260005 3.6326607906265 9.1030370936485
Ga 3.2252615987260005 3.6080938406265 21.2126665636485
O 0.0226283569439999 1.8525267162685 5.0161700564845
O -0.0276363430560001 1.8279597662685 17.1257995264845
O -1.5253887330560003 4.6842800212685 5.0157498064845
O -1.5756534330560004 4.6597130712685 17.125379276484498
O 3.2489743169440004 1.7776639012684998 5.0289950114845
O 3.1987096169440004 1.7530969512684995 17.1386244814845
O 1.700957226944 4.6094172062685 5.0285747614845
O 1.650692526944 4.5848502562685 17.138204231484497
O 1.605435813056 0.8797968237314999 7.105864118515499
O 1.555171113056 0.8552298737315 19.215493588515493
O 0.0574187230560001 3.7115501287315 7.1054438685155
O 0.0071540230560001 3.6869831787315 19.215073338515506
O 4.831781773056 0.8049340087314999 7.118689073515499
O 4.781517073056 0.7803670587314999 19.228318543515496
O 3.2837646830560008 3.6366873137315 7.118268823515498
O 3.2334999830560007 3.6121203637315 19.2278982935155
O 1.588959044396 0.8717437775214999 11.0754006587815
O 1.538694344396 0.8471768275214999 23.1850301287815
O 0.0409419543960001 3.7034970825215 11.074980408781501
O -0.0093227456039999 3.6789301325215 23.184609878781497
O 4.815305004396 0.7968809625214999 11.088225613781502
O 4.765040304396 0.7723140125214999 23.197855083781498
O 3.2672879143960007 3.6286342675215 11.0878053637815
O 3.2170232143960007 3.6040673175215 23.1974348337815
O 0.0391051256039999 1.8605797624785 1.0466335162185
O -0.0111595743960001 1.8360128124785 13.156262986218499
O -1.5089119643960005 4.6923330674785 1.0462132662185
O -1.5591766643960003 4.6677661174785 13.1558427362185
O 3.2654510856040004 1.7857169474784995 1.0594584712185
O 3.2151863856040004 1.7611499974785 13.1690879412185
O 1.717433995604 4.617470252478499 1.0590382212185
O 1.667169295604 4.5929033024785 13.168667691218499
O -0.012566175 -0.0061417375 3.0274073675
O -0.062830875 -0.0307086875 15.1370368375
O 4.892108655 2.6758859375 3.0526370275
O 4.841843955 2.6513189875 15.1622664975
O 3.2137797850000003 -0.0810045525 3.0402323225
O 3.163515085 -0.1055715025 15.1498617925
O 1.6657626950000002 2.7507487525 3.0398120725
O 1.615497995 2.7261818025 15.1494415425
O -0.037698525 -0.0184252125 9.0822221025
O -0.087963225 -0.0429921625 21.1918515725
O 4.866976305000001 2.6636024625 9.1074517625
O 4.816711605 2.6390355125 21.2170812325
O 3.188647435 -0.0932880275 9.0950470575
O 3.138382735 -0.1178549775 21.2046765275
O 1.6406303450000002 2.7384652775 9.0946268075
O 1.590365645 2.7138983275 21.2042562775
