80   
   
Ga 1.6059235023699998 7.29079331149 6.394995495759999
Al 6.594733057369999 7.2709868864899985 6.37873828076
Al 3.4431760957499997 1.2647482672299997 1.79865735104
Al 8.431985650749997 1.2449418422299998 1.78240013604
Ga 0.95559430255 3.00503675319 1.80473807042
Al 5.944403857549999 2.98523032819 1.78848085542
Al 4.09350529557 5.55050482553 6.388914776379999
Ga 9.08231485057 5.53069840053 6.37265756138
Al 0.915222275045 5.633056184265 -0.009580884965
In 5.904031830045 5.613249759265 -0.025838099965
Al 4.122192669954999 2.9184818107350003 4.580527959965
Ga 9.111002224955 2.8986753857350003 4.564270744965
Al 1.6215728968549998 1.352192496915 4.590521970505
In 6.610382451854999 1.3323860719149998 4.574264755505
Al 3.4454985281449995 7.209506878084999 9.175109804495
Al 8.434308083144998 7.189700453085 9.158852589495002
Al 0.86876014326 0.26381165112 9.18245466138
Al 5.857569698259999 0.24400522612 9.16619744638
Ga 4.198251968779999 8.297867401119998 4.56478774422
Al 9.18706152378 8.278060976119999 4.54853052922
Al 1.68898524528 4.53861457242 4.57737709812
Ga 6.67779480028 4.518808147420001 4.56111988312
Al 3.37802686676 4.02306447982 9.16986530748
Al 8.366836421759999 4.003258054819999 9.15360809248
Al 3.4459772074850004 1.339333010545 7.223488991205
Ga 8.434786762485 1.319526585545 7.207231776205
Al 1.608460557035 7.218037616574998 2.625207101595
Al 6.597270112034999 7.198231191574999 2.608949886595
Al 4.096582784635 5.614809350295 2.618964173255
Al 9.085392339634998 5.595002925295 2.602706958255
Al 0.957854979885 2.942561276825 7.229731919545
Al 5.946664534885 2.922754851825 7.213474704544998
O 4.184803271085 5.723485021385 8.190593843725
O 9.173612826085002 5.703678596385 8.174336628724998
O 0.875921667195 2.836039818295 3.607375405475
O 5.864731222194999 2.816233393295 3.591118190475
O 3.364854546395 1.438401881535 3.600889163695
O 8.353664101395001 1.418595456535 3.584631948695
O 1.695870391885 7.121122958145 8.197080085505
O 6.684679946884999 7.101316533145 8.180822870505
O 2.638082936645 0.073089508465 5.774830395885
O 7.626892491644998 0.053283083465 5.758573180885
O 2.406983380195 8.481070122574998 1.168345331715
O 7.395792935194998 8.461263697574998 1.152088116715
O 4.885107571395 4.342227792215 1.165103269135
O 9.873917126395002 4.322421367215 1.148846054135
O 0.159958745445 4.211931838825 5.778072458465
O 5.148768300444999 4.192125413825 5.761815243465
O 0.106354280455 7.085232535314998 1.103928814855
O 5.095163835455 7.065426110314999 1.087671599855
O 4.938237532705 1.4687645136449996 5.692131957545
O 9.927047087704999 1.4489580886449998 5.675874742545
O 2.449034436305 2.797872340565 5.698699303805
O 7.437843991304998 2.778065915565 5.682442088805
O 2.595557376855 5.756124708395 1.097361468595
O 7.584366931854999 5.736318283395 1.081104253595
O 4.89624764195 7.140061329889998 5.84194154552
O 9.88505719695 7.1202549048899995 5.82568433052
O 0.14935249153 1.41428120599 1.26673850668
O 5.138162046530001 1.39447478099 1.25048129168
O 2.6494993845299994 2.86064282759 1.25688642898
O 7.63830893953 2.84083640259 1.24062921398
O 2.3961007489499995 5.69369970829 5.85179362322
O 7.384910303949998 5.67389328329 5.83553640822
O 1.832384876535 1.457914469755 7.955004625384999
O 6.821194431535 1.438108044755 7.938747410385
O 3.226738611825 7.101061655404999 3.346451650015
O 8.215548166824998 7.081255230405 3.330194435015
O 0.726929490325 5.740362671105 3.356202347115
O 5.715739045325 5.720556246105001 3.339945132115
O 4.332193998035 2.818613454055 7.945253928285
O 9.321003553035 2.798807029055 7.928996713284999
O 4.197369397129999 0.00115333443 8.2616150602
O 9.18617895213 -0.01865309057 8.245357845200001
O 0.8637707318699999 8.55851376457 3.6650797748
O 5.85258028687 8.538707339570001 3.6488225598
O 3.34135448867 4.282611214529999 3.66199992118
O 8.330164043669999 4.26280478953 3.64574270618
O 1.71978564033 4.277055884469999 8.264694913819998
O 6.708595195329999 4.25724945947 8.24843769882
