80   
   
Ga 1.6428024872 7.463503793149998 6.52337253512
Al 6.757515762200001 7.447989323149998 6.50407488512
Al 3.52979607448 1.29831604647 1.83381253286
Al 8.64450934948 1.2828015764699998 1.81451488286
Al 0.9777674011 3.07579073243 1.83988089372
Al 6.092480676099999 3.0602762624299995 1.82058324372
In 4.194831160580001 5.68602910719 6.51730417426
Ga 9.30954443558 5.67051463719 6.49800652426
In 0.932889123705 5.76194609171 -0.01511737541
Al 6.047602398705 5.74643162171 -0.03441502541
Al 4.225822821294999 2.99266503329 4.67284174041
Al 9.340536096295 2.97715056329 4.6535440904100005
Al 1.663612988755 1.3884024119699998 4.685751978290001
Al 6.778326263754999 1.3728879419699995 4.66645432829
In 3.5303441762450003 7.384504943029999 9.36146655671
Al 8.645057451245 7.368990473029998 9.34216890671
Al 0.89527308678 0.2785008272099999 9.376330918530002
In 6.009986361779999 0.26298635721 9.35703326853
Al 4.29861358778 8.49436993533 4.652108628130001
Al 9.41332686278 8.478855465329998 4.63281097813
Al 1.72965148388 4.64729707913 4.66955648393
In 6.84436475888 4.63178260913 4.650258833930001
Ga 3.46423519068 4.12557368341 9.35888306273
In 8.57894846568 4.11005921341 9.33958541273
In 3.535457622935 1.37924518542 7.37353018555
Al 8.650170897935 1.36373071542 7.35423253555
In 1.643485078345 7.3858679756 2.67376383303
Al 6.758198353345 7.3703535056 2.65446618303
Ga 4.195935768685 5.748568929319999 2.66741187105
Al 9.310649043685 5.733054459319999 2.64811422105
Al 0.9830069325949998 3.0165442317 7.379882147530002
Al 6.097720207595 3.0010297617 7.36058449753
O 4.289216870574999 5.864570971879999 8.35696247013
O 9.403930145575 5.84905650188 8.337664820130001
O 0.897197817345 2.9044209899 3.680904312490001
O 6.0119110923450005 2.8889065199 3.661606662490001
O 3.450281533125 1.47738540314 3.674126948830001
O 8.564994808124998 1.46187093314 3.6548292988300006
O 1.736133154795 7.29160655864 8.363739833790001
O 6.850846429795 7.276092088639999 8.344442183790001
O 2.707631097295 0.08221202924 5.895701041050001
O 7.822344372294999 0.06669755924 5.87640339105
O 2.460174114465 8.677119523099998 1.18451281981
O 7.574887389465002 8.6616050531 1.1652151698100002
O 5.004817491045 4.44657114274 1.1834074785500002
O 10.119530766045001 4.43105667274 1.1641098285500002
O 0.162987720715 4.312760409599999 5.89680638231
O 5.277700995715 4.297245939599999 5.877508732310001
O 0.102798372365 7.2473095027399985 1.12118069693
O 5.217511647364999 7.231795032739998 1.10188304693
O 5.0644429158749995 1.5117293099199998 5.808801257210001
O 10.179156190875 1.4962148399199997 5.78950360721
O 2.511148191615 2.86867707684 5.81572042143
O 7.625861466614999 2.85316260684 5.7964227714300005
O 2.656093096625 5.89036173582 1.11426153271
O 7.770806371624999 5.87484726582 1.09496388271
O 5.016011763759999 7.312009125699999 5.956939531210001
O 10.13072503876 7.296494655699998 5.93764188121
O 0.15242786196 1.4476517587799995 1.2922852247100003
O 5.26714113696 1.4321372887799997 1.27298757471
O 2.71426842966 2.92926069538 1.2796231378100005
O 7.8289817046599985 2.91374622538 1.2603254878100003
O 2.45417119606 5.8304001891 5.9696016181100005
O 7.568884471059999 5.8148857191 5.950303968110001
O 1.881417782995 1.49960998311 8.12132223767
O 6.996131057995 1.48409551311 8.10202458767
O 3.303093663045 7.268393982249998 3.4095118597700003
O 8.417806938045 7.25287951225 3.3902142097700003
O 0.741516855945 5.87439482045 3.4219966959700003
O 5.856230130945 5.85888035045 3.4026990459700004
O 4.442994590095 2.89360914491 8.10883740147
O 9.557707865094995 2.87809467491 8.089539751470001
O 4.30764737196 0.01225748756 8.43439419253
O 9.42236064696 -0.00325698244 8.415096542530001
O 0.8792607490400001 8.75699062144 3.73492550847
O 5.99397402404 8.74147615144 3.71562785847
O 3.42348210866 4.386266601399999 3.7341037683300007
O 8.538195383659998 4.370752131399999 3.71480611833
O 1.7634260123399998 4.3829815076 8.435215932670001
O 6.87813928734 4.3674670376 8.41591828267
