40   
   
In 3.4358770741974887 -0.0096539896199478 3.052687442323111
Ga 6.81874630580251 -0.0583381803800522 11.670779237676888
Ga -0.0176692125 -0.0130100675 1.8551348825
Ga -0.1236844875 -0.0910704725 12.9859441775
Ga 6.907092368302512 0.0067121571199478 2.395104825176889
Al 3.347531011697489 -0.0747043271199478 12.328361854823113
Al 11.210079911697488 1.5261628878800522 4.830393609823111
Ga 9.43029902830251 1.4854546471199477 9.797021830176888
In 4.23231048830251 1.4674104621199475 9.855828020176888
Ga 6.012091371697489 1.5081187028800522 4.889199799823112
In 6.854084833348745 -0.0323180460599739 7.960509619911557
In 3.4005385466512554 -0.0356741239400261 6.7629570600884445
Al -0.07067685 -0.05204027 7.42053953
Ga 5.19798854 0.018044185 -0.05880619
In 2.59388351 1.53078276 -0.018622525
Ga 7.79187205 1.5488269449999998 -0.077428715
O 5.231721073548744 -0.0079088286599739 3.6754146733115554
O 5.022902306451255 -0.0600833413400261 11.048052006688446
O 3.4542530566110257 0.0038764816208576 1.123347016112321
O 6.8003703233889725 -0.0718686516208576 13.60011966388768
O 7.721849139188973 1.4616426205791424 3.6575370504876794
O 2.522961581611026 1.3921456910208576 11.08662832391232
O 7.720541260811027 1.5319307294208575 11.02868457951232
O 12.919428818388974 1.6014276589791423 3.5995933060876792
O -0.0360451935 -0.0265405377 3.7844751603
O -0.1053085065 -0.0775400023 11.0566038997
O 8.582463868148745 0.0213331415400261 1.1147952715115557
O 1.672159511851255 -0.0893253115400261 13.608671408488444
O 11.280102718548743 1.613347211940026 1.0954278455115556
O 9.359867464611026 1.5200111768208573 13.53285003891232
O 4.162287681451256 1.380226138059974 13.590793784488445
O 6.082522935388974 1.4735621731791424 1.1533715910876794
O 8.6499288327 -0.0305728851 8.5832368509
O 1.6046945473 -0.0374192849 6.1402298291
O 6.872460711802511 -0.0187875751800522 6.031169194876889
O 3.382162668197489 -0.0492045948199478 8.69229748512311
O 11.1400570023 1.4389785645 8.5653592269
O 9.5007307985 1.4508981171 6.0611937675
O 4.3023333977 1.5545947854999995 6.1208624031
O 5.9416596015000005 1.5426752329 8.625027862499998
