10   
   
Ga -0.04526104 -0.01743184 5.977477015
Ga 0.0 0.0 0.0
Ga -0.018819561134 1.810457324482 2.993592668702
Al 1.509536611134 0.8804404355179999 8.980505661298
O -0.02263052 -0.00871592 2.9887385075
O -0.06789156 -0.02614776 8.9662155225
O -0.033656130046 1.80474316733 4.953009634219
O 1.524373180046 0.8861545926699999 7.021088695781
O 1.494700042222 0.8747262783659998 10.939922626815001
O -0.003982992222 1.816171481634 1.034175703185
