80   
   
In 10.78543694582 4.1985e-08 1.262897332395
In 10.78543317082 3.245808026985 1.262897027395
In 23.04180792582 2.056985e-06 1.230566787395
Ga 23.04180415082 3.245810041985 1.230566482395
In -0.2637209658200001 -6.756985e-06 5.008605282605
In -0.26372474082 3.245801228015 5.008604977605001
Ga 11.99265001418 -4.741985e-06 4.976274737605
In 11.99264623918 3.245803243015 4.976274432605
Al 4.657249568319999 1.622903026985 1.2790624523949998
Ga 4.65724579332 4.868711011985001 1.279062147395
Al 16.913620548319997 1.622905041985 1.2467319073949998
Al 16.913616773319998 4.8687130269850005 1.246731602395
In 5.86446263668 1.622898243015 4.992439857605
In 5.86445886168 4.868706228015001 4.992439552605
In 18.12083361668 1.6229002580149998 4.960109312605
In 18.12082984168 4.868708243015001 4.960109007605
In 9.11763277668 1.622899698335 4.297239406915001
In 9.11762900168 4.868707683335001 4.297239101915
In 21.37400375668 1.622901713335 4.264908861915
In 21.37399998168 4.868709698335 4.2649085569150005
In 1.4040794283199998 1.622901571665 1.974262903085
In 1.4040756533199998 4.868709556665 1.974262598085
Al 13.660450408320001 1.622903586665 1.941932358085
In 13.66044663332 4.868711571665 1.941932053085
Al 2.9894491741800007 -5.301665e-06 4.313404831915
In 2.989445399180001 3.245802683335 4.313404526915
In 15.245820154179997 -3.286665e-06 4.2810742869150005
Al 15.24581637918 3.245804698335 4.281073981915
In 7.53226680582 -1.413335e-06 1.958097783085
Al 7.53226303082 3.245806571665 1.958097478085
In 19.78863778582 6.01665e-07 1.925767238085
In 19.78863401082 3.245808586665 1.925766933085
O 9.37797456546 -2.148605e-06 2.728037730205
O 9.37797079046 3.245805836395 2.728037425205
O 21.63434554546 -1.33605e-07 2.695707185205
O 21.63434177046 3.245807851395 2.695706880205
O 1.1437414145399998 -4.566395e-06 3.543464884795
O 1.1437376395399996 3.245803418605 3.543464579795
O 13.40011239454 -2.551395e-06 3.5111343397949994
O 13.40010861954 3.245805433605 3.5111340347949995
O 3.24978718796 1.622900836395 2.744202850205
O 3.2497834129600003 4.868708821395 2.744202545205
O 15.506158167959997 1.622902851395 2.711872305205
O 15.50615439296 4.868710836395 2.711872000205
O 7.271925017040002 1.622900433605 3.527299459795
O 7.271921242040001 4.868708418605 3.527299154795
O 19.52829599704 1.622902448605 3.494968914795
O 19.52829222204 4.868710433605 3.4949686097949995
O 8.690226818299998 -6.087175e-06 5.583415507325
O 8.690223043299998 3.2458018978250003 5.583415202325
O 20.9465977983 -4.072175e-06 5.551084962325
O 20.9465940233 3.245803912825 5.551084657325
O 1.8314891617 -6.27825e-07 0.688087107675
O 1.8314853867 3.245807357175 0.688086802675
O 14.0878601417 1.387175e-06 0.655756562675
O 14.0878563667 3.245809372175 0.655756257675
O 2.5620394408000005 1.6228968978249998 5.599580627325
O 2.5620356658000007 4.868704882825001 5.599580322325
O 14.818410420799998 1.622898912825 5.567250082325
O 14.818406645799996 4.8687068978250005 5.567249777325
O 7.9596727642 1.622904372175 0.671921682675
O 7.9596689892 4.868712357175 0.671921377675
O 20.2160437442 1.622906387175 0.639591137675
O 20.2160399692 4.868714372175 0.6395908326749999
O -1.23982506858 1.62289751417 4.6836185632
O -1.23982884358 4.86870549917 4.6836182582
O 11.01654591142 1.62289952917 4.6512880182
O 11.01654213642 4.8687075141700005 4.6512877132
O 11.76153727358 1.62290375583 1.5878837468
O 11.76153349858 4.86871174083 1.5878834418
O 24.01790825358 1.62290577083 1.5555532018
O 24.01790447858 4.86871375583 1.5555528968
O 4.888362308920001 -5.47083e-06 4.6674534432
O 4.888358533920001 3.24580251417 4.6674531382
O 17.14473328892 -3.45583e-06 4.6351228982
O 17.14472951392 3.24580452917 4.6351225932
O 5.633353671079999 -1.24417e-06 1.6040491718
O 5.63334989608 3.24580674083 1.6040488668
O 17.889724651079998 7.7083e-07 1.5717186268
O 17.88972087608 3.24580875583 1.5717183218
