40   
   
Al -1.23654132 -0.07677490625 12.691782407500002
In -0.17664876 -0.01096784375 1.8131117725
Ga 2.1611644399552006 -0.1373858524858199 11.219153215106253
Al 6.2654653100448 -0.1541254275141801 2.494077214893749
In 5.3822215100448 -0.2089646462641801 11.559636077393748
In 3.044408239955201 -0.0825466337358199 2.1535943526062518
Al 4.919909915 -0.101884265 -0.395831875
Al 3.661375630044799 1.4103576087358198 4.517371267393749
Al 4.830282194955201 1.34714860626418 9.220391847606253
In 9.7501921099552 1.24526434126418 8.824559972606252
In 8.581285545044798 1.3084733437358198 4.121539392393749
Al 1.1689066350447987 -0.0632090062641801 4.703020862393749
Al 7.2577231149552 -0.2283022737358199 9.010209567606253
Al 2.5144619458233 -0.1154501658632474 7.592929815155194
Al 5.9121678041767005 -0.1760611141367526 6.120300614844808
Al -0.70659504 -0.043871375 7.25244709
O 9.428639280844799 1.28348353478582 12.47281030389375
O 8.905439497155204 1.39221485001418 0.4742703685062513
O 3.9829284591552017 1.3721384152141802 0.8691209361062514
O 4.506128242844799 1.26340709998582 12.867660871493747
O -1.0528266096 -0.06536834875 10.8061461641
O -0.3603634704 -0.02237440125 3.6987480159
O 6.836471526044798 -0.2490257448141801 12.665885882693747
O 1.590158223955201 -0.0424855351858199 1.0473445473062517
O 1.9774497154233 -0.1487924108632474 13.104789603555192
O 6.4491800345767 -0.1427188691367526 0.608440826444807
O 6.3207417433767 1.2457204035632474 10.275162515844809
O 2.1683149586233004 1.3898251116367526 3.4616192917551927
O 7.090825996623299 1.4099015464367526 3.066768724155193
O 11.243252781376698 1.2657968383632474 9.88031194824481
O 3.9279715081767 -0.1689035468367526 10.453386127044809
O 4.4986582418233 -0.1226077331632474 3.2598443029551927
O 3.3398227307999995 1.44857680605 8.165621316499998
O 5.1544362172 1.43089010875 5.5731231059
O 10.0717450092 1.20704514395 5.1763099235
O 8.2571315228 1.22473184125 7.7688081341
O 2.698176670355201 -0.1040436074858199 5.707293426706252
O 5.728453079644799 -0.1874676725141801 8.00593700329375
O 0.7476549760000002 -0.08393247355 8.358696895299998
O 7.678974774 -0.20757880645 5.3545335347
