80   
   
Ga 10.85431191789 1.185645e-06 1.2836960494949998
In 10.85431048289 3.320640080645 1.2836811044949998
In 23.203714577890004 5.040645e-06 1.230963804495
Ga 23.20371314289 3.320643935645 1.2309488594949998
In -0.3161048678899999 -8.640645e-06 5.159326145505
In -0.3161063028899998 3.320630254355 5.159311200505
In 12.033297792110002 -4.785645e-06 5.1065939005050005
Ga 12.03329635711 3.320634109355 5.106578955505
In 4.67960987039 1.660318705645 1.310054699495
In 4.6796084353900005 4.9809576006450005 1.310039754495
Ga 17.029012530390002 1.660322560645 1.257322454495
In 17.029011095390004 4.980961455645 1.257307509495
In 5.85859574461 1.660312734355 5.132952550505
In 5.85859430961 4.980951629355 5.132937605505
In 18.20799840461 1.660316589355 5.080220305505
Ga 18.20799696961 4.980955484355 5.080205360505
In 9.143366731099999 1.660314930895 4.411732255295
In 9.1433652961 4.980953825895 4.411717310295
In 21.4927693911 1.660318785895 4.359000010295
In 21.492767956100003 4.980957680895 4.358985065295
In 1.3948388839 1.660316509105 2.031274994705
In 1.3948374489 4.980955404105 2.031260049705
In 13.7442415439 1.660320364105 1.978542749705
In 13.7442401089 4.980959259105 1.978527804705
In 2.9686661186000007 -6.444105e-06 4.438105850295
In 2.968664683600001 3.3206324508950003 4.438090905295001
In 15.3180687786 -2.589105e-06 4.385373605295
In 15.3180673436 3.3206363058950004 4.385358660295
In 7.5695409314 -1.010895e-06 2.004916344705
In 7.569539496400002 3.3206378841050004 2.004901399705
In 19.9189435914 2.844105e-06 1.952184099705
In 19.918942156400004 3.320641739105 1.952169154705
O 9.42146351825 -1.754385e-06 2.795035123665
O 9.42146208325 3.320637140615 2.795020178665
O 21.770866178250003 2.100615e-06 2.742302878665
O 21.77086474325 3.3206409956150003 2.742287933665
O 1.11674353175 -5.700615e-06 3.6479870713349993
O 1.11674209675 3.320633194385 3.647972126335
O 13.466146191750001 -1.845615e-06 3.595254826335
O 13.46614475675 3.320637049385 3.5952398813349995
O 3.2467614707500005 1.660315765615 2.821393773665
O 3.246760035750001 4.980954660615 2.821378828665
O 15.59616413075 1.6603196206150002 2.768661528665
O 15.596162695750003 4.980958515615 2.768646583665
O 7.29144414425 1.660315674385 3.621613476335
O 7.29144270925 4.980954569385 3.621598531335
O 19.640846804250003 1.6603195293850002 3.568881231335
O 19.640845369250002 4.980958424385 3.568866286335
O 8.6997871282 -6.846975e-06 5.737190027025
O 8.6997856932 3.320632048025 5.737175082025
O 21.049189788200003 -2.991975e-06 5.684457782025
O 21.0491883532 3.320635903025 5.684442837025
O 1.8384199218 -6.08025e-07 0.705832167975
O 1.8384184868 3.320638286975 0.7058172229749999
O 14.1878225818 3.246975e-06 0.653099922975
O 14.187821146800003 3.320642141975 0.653084977975
O 2.5250850807000003 1.660310673025 5.763548677025
O 2.5250836457000005 4.980949568025 5.763533732025
O 14.8744877407 1.660314528025 5.710816432025
O 14.874486305700003 4.980953423025 5.710801487025
O 8.0131205343 1.6603207669750002 0.679458572975
O 8.0131190993 4.9809596619750005 0.679443627975
O 20.362523194300003 1.660324621975 0.6267263279749999
O 20.3625217593 4.980963516975001 0.626711382975
O -1.29632144509 1.66031105959 4.82612714744
O -1.29632288009 4.980949954590001 4.82611220244
O 11.05308121491 1.66031491459 4.77339490244
O 11.05307977991 4.98095380959 4.77337995744
O 11.83452706009 1.66032038041 1.61688010256
O 11.83452562509 4.98095927541 1.61686515756
O 24.18392972009 1.66032423541 1.56414785756
O 24.183928285090005 4.98096313041 1.56413291256
O 4.87838060241 -6.46041e-06 4.79976849744
O 4.87837916741 3.32063243459 4.79975355244
O 17.22778326241 -2.60541e-06 4.74703625244
O 17.22778182741 3.3206362895900003 4.74702130744
O 5.65982644759 -9.9459e-07 1.64325369756
O 5.659825012590001 3.3206379004100004 1.64323875256
O 18.009229107590002 2.86041e-06 1.59052145256
O 18.00922767259 3.3206417554100005 1.59050650756
