40   
   
In 0.06079233125 -0.010128405 13.72677011125
In 0.00868461875 -0.001446915 1.96096715875
In 0.0855618532332185 3.6729864471382383 12.576464886092785
In 3.217060506766781 1.8069651228617625 3.565848393907216
In 3.18730646 -0.031698445 0.21906653
Ga -1.570733755 2.77746189 0.008221475
In 1.6165727049999998 2.745763445 0.227288005
In -1.5322950894832192 4.614678542861761 5.315970497657215
Ga 0.0384386655167811 1.8372166528617624 5.307749022657215
In 1.655011370516781 4.582980097861761 5.535037027657215
Ga 1.6476109894832185 0.8969714721382377 10.607276252342784
In 4.834917449483219 0.8652730271382376 10.826342782342785
Ga 3.264183694483219 3.6427349171382386 10.834564257342784
In 0.068192616427988 3.6758802770224848 8.654530725470158
In 3.234429743572012 1.8040712929775156 7.487782554529842
In 0.034738475 -0.00578766 7.843868635
O 4.788962010066781 0.8998153384617623 14.771612273207213
O 3.2810576052667813 3.5661787528617626 14.779504889207216
O 1.7291478084667813 0.9302458456617624 14.561308404407216
O 1.5734745515332194 4.5497057243382395 1.5810048755927846
O -1.4863396500667811 4.580136231538239 1.3707010067927845
O 0.0215647547332189 1.913772817138238 1.3628083907927846
O 0.05176032775 -0.0086236134 11.68736426615
O 0.01771662225 -0.0029517066 4.00037300385
O 0.094593857427988 3.6714816554224847 14.615870888070157
O 3.208028502572012 1.8084699145775156 1.5264423919298429
O 1.7320051902720113 2.699645757377516 11.969755945229842
O 3.239909595072011 0.0332823429775155 11.96186332922984
O 4.791819391872011 2.6692152501775155 12.18005981402984
O -1.4891970318720116 2.8107363198224844 3.9622534659701567
O 1.5706171697279885 2.7803058126224847 4.172557334770157
O 0.0627127649279886 5.446669227022485 4.180449950770157
O -1.5782506254499995 4.6492209106 9.26123967055
O 0.0553124797500001 1.760660545 9.252689336549999
O 1.7365480929500008 4.6162545278 9.48906886175
O 1.56607426705 0.8636970422000001 6.65324441825
O 4.880872985449999 0.8307306594000001 6.88107360945
O 3.24730988025 3.719291025 6.889623943449999
O 0.0591606122332185 3.6773850687382383 6.615124723492785
O 3.2434617477667818 1.8025665012617624 9.527188556507216
