80   
   
In -0.0458053325 -0.05780544 6.043181825
Al -0.1374159975 -0.17341632 18.129545475
In 4.7196294425 2.92982754 6.10538884
Al 4.6280187775 2.81421666 18.19175249
Al 3.1993078925 0.060430495 6.06809516
In 3.1076972275 -0.055180385 18.15445881
Al 1.4745162174999995 2.811591605 6.080475505
In 1.3829055524999998 2.695980725 18.166839155
Al 0.0 0.0 0.0
Al -0.091610665 -0.11561088 12.08636365
In 4.765434774999999 2.98763298 0.062207015
In 4.673824109999999 2.8720221 12.148570665
Al 3.245113225 0.118235935 0.024913335
Al 3.15350256 0.002625055 12.111276985000002
Al 1.5203215499999998 2.869397045 0.03729368
In 1.428710885 2.753786165 12.123657329999999
In -0.0910525589125002 1.8444293130615 3.0381472650325
Al -0.1826632239125001 1.7288184330614995 15.124510915032499
Al -1.8158442339125005 4.5955904230615 3.0505276100325
Al -1.9074548989125 4.4799795430615 15.136891260032499
Al 3.1540606660875 1.9626652480615 3.0630606000325
In 3.0624500010874995 1.8470543680615 15.1494242500325
Al 1.4292689910874994 4.7138263580615005 3.0754409450325
In 1.3376583260874997 4.5982154780615 15.1618045950325
Al 1.5197634439124998 0.9093568519384998 9.085510064967501
In 1.4281527789124997 0.7937459719384998 21.1718737149675
Al -0.2050282310875003 3.6605179619385 9.097890409967501
In -0.2966388960875003 3.5449070819385 21.184254059967493
In 4.7648766689125 1.0275927869385 9.110423399967502
Al 4.6732660039125 0.9119819069385 21.196787049967494
Al 3.0400849939125 3.7787538969385 9.122803744967497
Al 2.9484743289125 3.6631430169385 21.209167394967494
O -0.1060675469060001 1.8254806898295 5.0191022672675
O -0.1976782119060001 1.7098698098294998 17.105465917267498
O -1.8308592219060005 4.5766417998295 5.031482612267499
O -1.922469886906 4.4610309198295 17.1178462622675
O 3.1390456780939995 1.9437166248295 5.0440156022675
O 3.047435013094 1.8281057448295 17.1303792522675
O 1.4142540030939994 4.6948777348295 5.056395947267499
O 1.3226433380939997 4.5792668548295 17.1427595972675
O 1.5347784319059998 0.9283054751705 7.104555062732499
O 1.4431677669059997 0.8126945951704998 19.1909187127325
O -0.1900132430940003 3.6794665851705 7.116935407732499
O -0.2816239080940003 3.5638557051704995 19.2032990577325
O 4.779891656906 1.0465414101705 7.129468397732499
O 4.688280991906 0.9309305301705 19.215832047732498
O 3.055099981906 3.7977025201705 7.141848742732499
O 2.963489316906 3.6820916401705 19.228212392732495
O 1.5047484559189996 0.8904082287064998 11.066465067202499
O 1.4131377909189995 0.7747973487064999 23.152828717202496
O -0.2200432190810004 3.6415693387065 11.078845412202499
O -0.3116538840810003 3.5259584587065 23.165209062202496
O 4.749861680919 1.0086441637065 11.0913784022025
O 4.658251015919 0.8930332837064999 23.177742052202497
O 3.025070005919 3.7598052737065 11.103758747202502
O 2.933459340919 3.6441943937065 23.190122397202497
O -0.0760375709190002 1.8633779362935 1.0571922627975
O -0.1676482359190002 1.7477670562934997 13.1435559127975
O -1.8008292459190005 4.614539046293499 1.0695726077975
O -1.892439910919 4.4989281662935 13.155936257797501
O 3.1690756540809994 1.9816138712935 1.0821055977974998
O 3.0774649890809997 1.8660029912935 13.168469247797502
O 1.4442839790809994 4.7327749812935 1.0944859427974998
O 1.3526733140809994 4.6171641012935005 13.1808495927975
O -0.02290266625 -0.02890272 3.0215909125
O -0.11451333125 -0.1445136 15.107954562499996
O 4.742532108749999 2.95873026 3.0837979275
O 4.650921443749999 2.84311938 15.170161577499996
O 3.22221055875 0.089333215 3.0465042475
O 3.13059989375 -0.026277665 15.132867897499997
O 1.4974188837499998 2.840494325 3.0588845925
O 1.4058082187499998 2.724883445 15.1452482425
O -0.06870799875 -0.08670816 9.0647727375
O -0.16031866375 -0.20231904 21.1511363875
O 4.696726776249999 2.90092482 9.126979752499999
O 4.605116111249999 2.78531394 21.2133434025
O 3.17640522625 0.031527775 9.0896860725
O 3.08479456125 -0.084083105 21.1760497225
O 1.45161355125 2.782688885 9.1020664175
O 1.3600028862499998 2.667078005 21.1884300675
