80   
   
Al 1.61312726101 7.299802158060001 6.40068236072
Ga 6.60650480101 7.277191743060001 6.38310731072
Al 3.44751312405 1.26459336768 1.7995126332800002
Al 8.44089066405 1.24198295268 1.7819375832800002
Ga 0.95861620105 3.00853340952 1.80616750692
Ga 5.951993741049999 2.98592299452 1.78859245692
Al 4.10202418401 5.55586211622 6.39402748708
Ga 9.09540172401 5.53325170122 6.376452437079999
Al 0.91919594266 5.639882047575001 -0.01009288739
Ga 5.91257348266 5.617271632575001 -0.02766793739
Ga 4.12880059234 2.9202800624250007 4.58393315739
Al 9.12217813234 2.8976696474250008 4.56635810739
Ga 1.62501429834 1.3533436386450002 4.59466329551
Al 6.61839183834 1.3307332236450002 4.57708824551
Al 3.45507322666 7.217563181354999 9.18312297449
Al 8.44845076666 7.194952766355 9.16554792449
In 0.8721035307300001 0.26425742067 9.1914727152
Al 5.86548107073 0.2416470056700001 9.1738976652
Al 4.207919812289999 8.30662790991 4.5679056628
Ga 9.20129735229 8.284017494909998 4.5503306128
Ga 1.69425870229 4.54387704261 4.581338567
Ga 6.68763624229 4.521266627609999 4.563763517
Al 3.38576464073 4.02700828797 9.178039811
Al 8.379142180729998 4.00439787297 9.160464761
Al 3.45177526353 1.3396197791850002 7.22980903699
Al 8.44515280353 1.3170093641850005 7.21223398699
Al 1.61464149973 7.226709794355 2.62709623701
Ga 6.60801903973 7.204099379355 2.60952118701
Al 4.10415559873 5.620008155235001 2.62027244049
Al 9.097533138729998 5.597397740235 2.60269739049
Al 0.96226116453 2.946321418305 7.23663283351
Al 5.955638704530001 2.923711003305 7.21905778351
O 4.193972906229999 5.729131705725002 8.19749097363
O 9.18735044623 5.706521290725001 8.17991592363
O 0.87924714691 2.839475746335 3.61065085237
O 5.872624686910001 2.8168653313350003 3.59307580237
O 3.3696870099100003 1.438631711295 3.60357367153
O 8.36306454991 1.416021296295 3.5859986215300004
O 1.70353304323 7.129975740765 8.204568154469998
O 6.69691058323 7.1073653257650005 8.18699310447
O 2.64205560271 0.072084556245 5.7799601136300005
O 7.635433142709998 0.049474141245 5.76238506363
O 2.41422040771 8.490849688935 1.16849822437
O 7.407597947710002 8.468239273934998 1.15092317437
O 4.89231675071 4.345237599495 1.16479950113
O 9.885694290710001 4.322627184495 1.14722445113
O 0.16395925971 4.217696645685001 5.78365883687
O 5.15733679971 4.195086230685001 5.76608378687
O 0.11068395739 7.094470894275 1.10468263889
O 5.104061497389999 7.071860479275 1.08710758889
O 4.94507859719 1.468291435545 5.69651256311
O 9.93845613719 1.445681020545 5.67893751311
O 2.45433014619 2.800516269225 5.7036742053900005
O 7.44770768619 2.777905854225 5.68609915539
O 2.60143240839 5.762246060595 1.09752099661
O 7.59480994839 5.739635645595 1.07994594661
O 4.906245893 7.147006943550001 5.846218936600001
O 9.899623433 7.124396528550001 5.8286438866
O 0.15060775524 1.4161207064100003 1.2679104294
O 5.14398529524 1.3935102914100002 1.2503353794
O 2.6538540202400003 2.8629735278100004 1.2573280988000002
O 7.64723156024 2.8403631128100004 1.2397530488
O 2.402999628 5.700154122150001 5.8568012672
O 7.396377168 5.677543707150001 5.8392262172
O 1.83695758428 1.4593005879450005 7.96247783735
O 6.83033512428 1.4366901729450003 7.94490278735
O 3.2345295554 7.108726649775 3.34865090465
O 8.227907095399999 7.086116234775 3.33107585465
O 0.7316690254000001 5.747647830075001 3.35912765845
O 5.7250465654 5.725037415075001 3.34155260845
O 4.33981811428 2.8203794076450004 7.95200108355
O 9.33319565428 2.7977689926450005 7.93442603355
O 4.20338408794 -0.00065466777 8.268848100519998
O 9.19676162794 -0.02326508277 8.25127305052
O 0.87028523906 8.569412545770001 3.66814896948
O 5.863662779059999 8.54680213077 3.65057391948
O 3.34776440606 4.28656205361 3.66461916912
O 8.34114194606 4.26395163861 3.64704411912
O 1.72590492094 4.2821958243900005 8.27237790088
O 6.719282460940001 4.2595854093900005 8.25480285088
