80   
   
Ga 1.7063819729 7.71180212672 6.70591563771
In 6.9981028429 7.696402296719999 6.67992840771
In 3.65396343276 1.34276329324 1.88239667291
Ga 8.945684302759998 1.32736346324 1.85640944291
In 1.01337532502 3.17712268564 1.88959685923
Ga 6.305096195019999 3.16172285564 1.86360962923
In 4.34697008064 5.87744273432 6.698715451389999
In 9.63869095064 5.86204290432 6.672728221389999
Al 0.96439225027 5.94745103503 -0.02352337789
Ga 6.25611312027 5.9320512050300005 -0.04951060789
In 4.377212194729999 3.09517250497 4.80273717289
Al 9.66893306473 3.07977267497 4.77674994289
In 1.72654924381 1.43898457917 4.82100797045
Ga 7.018270113809999 1.42358474917 4.79502074045
Al 3.66262109119 7.633948300829998 9.62596855455
Al 8.95434196119 7.618548470829999 9.59998132455
In 0.93731044917 0.29897792022 9.65286870243
In 6.22903131917 0.28357809022 9.62688147243
Al 4.451764754049999 8.7738943411 4.77477229711
Al 9.74348562405 8.7584945111 4.74878506711
In 1.79442004185 4.8027320281 4.80038526171
Al 7.08614091185 4.7873321981000005 4.77439803171
Al 3.59465516137 4.27014023322 9.62725573783
Ga 8.886376031369998 4.25474040322 9.60126850783
In 3.66636095029 1.43303495293 7.58622520258
Al 8.958081820289998 1.41763512293 7.56023797258
Ga 1.70254631557 7.6269861482299985 2.74228439944
In 6.994267185569999 7.61158631823 2.71629716944
In 4.343552033389999 5.93731265503 2.73462532768
Ga 9.63527290339 5.92191282503 2.70863809768
Al 1.02535523247 3.12270844613 7.593884274339999
In 6.317076102470001 3.10730861613 7.56789704434
O 4.44677426247 6.06397894185 8.59258155676
O 9.738495132469998 6.0485791118500005 8.56659432676
O 0.93221697207 3.00246773939 3.78549374402
O 6.22393784207 2.98706790939 3.75950651402
O 3.57384910501 1.52982309499 3.7771463441
O 8.86556997501 1.51442326499 3.7511591141
O 1.80514212953 7.536623586249998 8.60092895668
O 7.09686299953 7.521223756249999 8.57494172668
O 2.80830730723 0.09236548241 6.06712133836
O 8.100028177229998 0.07696565241 6.04113410836
O 2.54556913739 8.958077867310001 1.20637524098
O 7.83729000739 8.942678037310001 1.18038801098
O 5.17884906873 4.591715238910001 1.20720554986
O 10.47056993873 4.57631540891 1.18121831986
O 0.17502737589 4.458728110809999 6.06629102948
O 5.46674824589 4.44332828081 6.04030379948
O 0.10671650675 7.481888847589999 1.1456908407
O 5.39843737675 7.46648901759 1.1197036107
O 5.24639888363 1.56806955269 5.97312153496
O 10.53811975363 1.55266972269 5.94713430496
O 2.60455794565 2.9683712474900004 5.9816983776
O 7.8962788156500014 2.95297141749 5.9557111476
O 2.74855744473 6.08158715279 1.13711399806
O 8.04027831473 6.06618732279 1.11112676806
O 5.19569374951 7.55516408866 6.11882495028
O 10.48741461951 7.539764258659998 6.09283772028
O 0.15903888113 1.49582482918 1.3286913582000002
O 5.45075975113 1.48042499918 1.3027041282
O 2.8093364232300004 3.02541259318 1.3108220854
O 8.101057293229998 3.01001276318 1.2848348554
O 2.54539620741 6.02557632466 6.13669422308
O 7.83711707741 6.0101764946600005 6.11070699308
O 1.95594040191 1.55797622881 8.358025476349999
O 7.24766127191 1.54257639881 8.33203824635
O 3.42048227457 7.506833748069998 3.49799063701
O 8.712203144570001 7.4914339180699985 3.47200340701
O 0.7704457387700001 6.06767467107 3.51557310641
O 6.06216660877 6.05227484107 3.48958587641
O 4.60597693771 2.99713530581 8.34044300695
O 9.89769780771 2.98173547581 8.31445577695
O 4.46671404895 0.02344701682 8.67923245238
O 9.758434918950002 0.00804718682 8.65324522238
O 0.91294310805 9.04342399518 3.83419152662
O 6.204663978049999 9.02802416518 3.80820429662
O 3.54580542931 4.5323754675800005 3.83548072094
O 8.837526299309998 4.51697563758 3.80949349094
O 1.83385172769 4.53449554442 8.677943258059999
O 7.12557259769 4.51909571442 8.65195602806
