20   
   
Ga 10.83853364849 7.35809e-06 1.17057547863
Al -0.03401151849 -1.54809e-06 4.57008551137
Ga 4.713807943489999 1.53309430809 1.17502857863
Al 6.09070398651 1.53309416191 4.5656465313700005
Ga 9.31056046873 1.53309667346 3.9367222267400006
Ga 1.49395146127 1.53309179654 1.80395288326
Al 3.1858449637300006 9.6346e-07 3.94116120674
In 7.618677166270001 4.84654e-06 1.7994997832600002
O 8.94230542915 4.6891e-06 5.109677345500001
O 1.86221670085 1.1209e-06 0.6309836445
O 2.81757972415 1.5330916390999998 5.1141304455
O 7.986932205850001 1.5330968309 0.6265446645
O 9.498858242710002 5.95537e-06 2.50520094143
O 1.3056638872900002 -1.4537e-07 3.23546004857
O 3.3741325377100004 1.53309290537 2.50965404143
O 7.430379392290002 1.53309556463 3.23102106857
O -1.0245822116 1.53308917319 4.27188942269
O 11.829094141600002 1.53309929681 1.46878568731
O 5.100143493400001 2.22319e-06 4.26743632269
O 5.7043786366 3.58681e-06 1.47322466731
