40   
   
Al 7.981525972007239 0.1395402044706408 13.582604955266698
Al 5.05723803 0.05060226 -0.01212087
Ga 9.17917099049276 1.5517874155293592 2.3363978572333037
Al 4.121932960492761 1.5011851555293592 2.3485187272333032
Ga 4.8822451425 0.072203475 5.3107164375
Al 1.5496404629927611 0.0336683655293592 4.135944329733304
Al -0.23332385 0.02880162 7.09711641
Ga 8.273180784507238 0.1035381794706408 4.711209442766696
In 2.280637685 1.503518815 7.08396991
In 7.337875715 1.554121075 7.07184904
Al 8.098187897007238 0.1251393944706408 10.034046750266697
Ga 4.7655832175 0.086604285 8.859274642499999
Al 2.9826189045072384 0.0817375394706408 11.820446722766697
Al 1.3746475754927612 0.0552695805293592 9.458781637233304
Al 5.496580439507238 1.5564547344706408 11.807300222766695
Al 10.553818469507238 1.6070569944706408 11.795179352766697
O 3.3992568059000003 0.0393058122 1.1982675981000002
O 1.260318888992761 0.0693823743293592 12.936368678133304
O 5.8126598795 1.4550343193999995 1.1856469581
O 10.868725311099999 1.6215898646 1.1729592029
O 8.387509471007238 0.0894253856706408 1.2336224018666964
O 6.2485715541 0.1195019478 12.9717234819
O 8.863091550499998 1.6532078306000002 12.9580511219
O 3.807026118900001 1.4866522854 12.9707388771
O 6.6151995604072376 0.0922417316706408 5.921597910866696
O 4.942909343499999 0.0647150538 3.4654661709
O 9.02860263400724 1.5079702388706409 5.908977270866696
O 3.970192005607239 1.5733212640706409 5.920531255666696
O 1.4889762619927611 0.0411567867293592 5.981194596333304
O 9.931162008607238 0.1148346272706408 3.5008209746666963
O 12.545682005007238 1.648540510070641 3.487148614666696
O 7.48961657340724 1.481984964870641 3.499836369866696
O -0.2833336486072388 0.0439731327293592 10.669170105333302
O 8.15885209800724 0.1176509732706408 8.188796483666696
O 2.1300694249927608 1.459701639929359 10.656549465333303
O 7.186134856592761 1.6262571851293592 10.643861710133303
O 4.7049190165 0.0940927062 10.704524909100002
O 3.0326287995927608 0.0665660283293592 8.248393169133305
O 5.647148795992761 1.6002719111293593 8.234720809133302
O 10.70555942439276 1.534920885929359 8.223166824333305
