80   
   
Al 10.80453364668 3.42079e-06 1.21716824965
In 10.80452661168 3.15377681579 1.21717610965
In 23.04932131668 8.48079e-06 1.19779474965
Ga 23.04931428168 3.15378187579 1.19780260965
Al -0.1498842466800002 -4.11079e-06 4.786769280350001
Al -0.1498912816800003 3.15376928421 4.786777140350001
In 12.094903423319998 9.4921e-07 4.76739578035
In 12.094896388319999 3.15377434421 4.76740364035
Al 4.682136294179999 1.57688758829 1.22685892965
Al 4.682129259179999 4.73066098329 1.22686678965
Al 16.92692396418 1.57689264829 1.20748542965
Ga 16.92691692918 4.73066604329 1.20749328965
Al 5.972506070819999 1.57688511671 4.7770864603500005
Ga 5.972499035819999 4.73065851171 4.777094320350001
Al 18.21729374082 1.57689017671 4.75771296035
Ga 18.21728670582 4.73066357171 4.75772082035
Ga 9.207028059749998 1.57688700846 4.115702183080001
In 9.207021024749999 4.73066040346 4.115710043080001
In 21.45181572975 1.57689206846 4.09632868308
Ga 21.45180869475 4.73066546346 4.0963365430800005
Al 1.44761430525 1.57688569654 1.88824320692
In 1.44760727025 4.73065909154 1.88825106692
In 13.69240197525 1.57689075654 1.86886970692
In 13.69239494025 4.73066415154 1.86887756692
In 3.0846377422499995 -2.21904e-06 4.125385003080001
In 3.084630707249999 3.15377117596 4.125392863080001
Ga 15.329425412249996 2.84096e-06 4.10601150308
Al 15.329418377249997 3.15377623596 4.106019363080001
Ga 7.5700116577499985 1.52904e-06 1.87855252692
In 7.57000462275 3.15377492404 1.87856038692
In 19.81479932775 6.58904e-06 1.85917902692
Ga 19.81479229275 3.15377998404 1.85918688692
O 9.431548979099999 1.67187e-06 2.6161650356100004
O 9.4315419441 3.15377506687 2.61617289561
O 21.6763366491 6.73187e-06 2.59679153561
O 21.6763296141 3.15378012687 2.59679939561
O 1.2231004208999996 -2.36187e-06 3.38777249439
O 1.2230933858999995 3.15377103313 3.38778035439
O 13.4678880909 2.69813e-06 3.36839899439
O 13.4678810559 3.15377609313 3.36840685439
O 3.3091516266 1.5768858393699998 2.62585571561
O 3.3091445915999995 4.73065923437 2.62586357561
O 15.553939296599998 1.57689089937 2.6064822156100003
O 15.553932261599996 4.73066429437 2.60649007561
O 7.345490738399999 1.57688686563 3.37808967439
O 7.3454837034 4.730660260630001 3.37809753439
O 19.5902784084 1.57689192563 3.35871617439
O 19.5902713734 4.73066532063 3.35872403439
O 8.809174644149996 -8.924e-07 5.344569944200001
O 8.809167609149998 3.1537725026 5.3445778042
O 21.05396231415 4.1676e-06 5.3251964442
O 21.05395527915 3.1537775626 5.325204304200001
O 1.84547475585 2.024e-07 0.6593675858
O 1.8454677208500003 3.1537735974 0.6593754458000001
O 14.09026242585 5.2624e-06 0.6399940858000001
O 14.09025539085 3.1537786574 0.6400019458
O 2.6867772916500003 1.5768832751 5.3542606242
O 2.68677025665 4.7306566701 5.3542684842
O 14.931564961649997 1.5768883351 5.334887124200001
O 14.931557926649997 4.7306617301000005 5.3348949842
O 7.967865073349999 1.5768894299 0.6496847658
O 7.96785803835 4.7306628249000005 0.6496926258000001
O 20.21265274335 1.5768944899 0.6303112658000001
O 20.21264570835 4.7306678849 0.6303191258
O -1.13249710143 1.57688244549 4.47524653129
O -1.13250413643 4.73065584049 4.47525439129
O 11.112290568569998 1.57688750549 4.45587303129
O 11.112283533569999 4.73066090049 4.4558808912900005
O 11.78713946643 1.57689025951 1.52869885871
O 11.78713243143 4.730663654510001 1.52870671871
O 24.031927136429996 1.5768953195100002 1.5093253587100002
O 24.03192010143 4.73066871451 1.50933321871
O 4.98990025107 -1.72201e-06 4.46555585129
O 4.98989321607 3.15377167299 4.465563711290001
O 17.234687921069998 3.33799e-06 4.44618235129
O 17.234680886069995 3.15377673299 4.44619021129
O 5.66474914893 1.03201e-06 1.5383816787100002
O 5.664742113929999 3.15377442701 1.5383895387100002
O 17.90953681893 6.09201e-06 1.51900817871
O 17.90952978393 3.15377948701 1.51901603871
