80   
   
Ga -0.03089817 -0.0164013475 6.0371152625
Ga -0.09269451 -0.0492040425 18.1113457875
Ga 4.826879539999999 2.6938466225 6.0686367125
Ga 4.7650832 2.6610439275 18.1428672375
Ga 3.180191245 -0.0636182275 6.0531211425
Ga 3.118394905 -0.0964209225 18.1273516675
In 1.615790125 2.7410635025 6.0526308325
Ga 1.5539937849999998 2.7082608075 18.1268613575
Ga 0.0 0.0 0.0
Ga -0.06179634 -0.032802695 12.074230525
Ga 4.85777771 2.71024797 0.03152145
Ga 4.79598137 2.677445275 12.105751975
Ga 3.211089415 -0.04721688 0.01600588
Al 3.149293075 -0.080019575 12.090236405
Al 1.646688295 2.75746485 0.01551557
Ga 1.584891955 2.724662155 12.089746095
Al 0.0119772304275001 1.845662781364 3.023565550408
Ga -0.0498191095724999 1.812860086364 15.097796075408
Ga -1.5524238895725 4.650344511364 3.023075240408
Ga -1.6142202295725 4.617541816364 15.097305765408
Ga 3.2230666454275 1.798445901364 3.0395714304080004
Ga 3.1612703054275 1.765643206364 15.113801955408
Ga 1.6586655254275 4.603127631364 3.0390811204080004
Ga 1.5968691854275 4.570324936364 15.113311645408
Ga 1.5729147245725 0.8789993736359999 9.066180544592
Ga 1.5111183845724998 0.8461966786359999 21.140411069592
Ga 0.0085136045725 3.6836811036359993 9.065690234592
In -0.0532827354275 3.6508784086359993 21.139920759592
Ga 4.784004139572501 0.8317824936359999 9.082186424592
Ga 4.722207799572501 0.7989797986359999 21.156416949592
Ga 3.2196030195725 3.636464223636 9.081696114592
In 3.1578066795725 3.603661528636 21.155926639592
O 0.0018488103015001 1.8402864196535 5.0025319334555
O -0.0599475296984999 1.8074837246535 17.0767624584555
O -1.5625523096985 4.6449681496535 5.0020416234555
O -1.6243486496985 4.6121654546535 17.0762721484555
O 3.2129382253015004 1.7930695396535 5.0185378134555005
O 3.1511418853015005 1.7602668446535 17.0927683384555
O 1.6485371053015 4.5977512696535 5.0180475034555005
O 1.5867407653015 4.5649485746535 17.0922780284555
O 1.5830431446984998 0.8843757353464999 7.0872141615445
O 1.5212468046985 0.8515730403464998 19.161444686544506
O 0.0186420246985 3.6890574653465 7.0867238515445
O -0.0431543153015 3.6562547703465 19.160954376544506
O 4.7941325596985 0.8371588553464999 7.1032200415445
O 4.7323362196985 0.8043561603464998 19.1774505665445
O 3.2297314396985 3.6418405853465 7.1027297315445
O 3.1679350996985 3.6090378903465 19.1769602565445
O 1.5627863044464998 0.8736230119254998 11.045146927639502
O 1.5009899644465 0.8408203169254999 23.1193774526395
O -0.0016148155535 3.6783047419255 11.044656617639502
O -0.0634111555535 3.6455020469255 23.1188871426395
O 4.7738757194465 0.8264061319254998 11.0611528076395
O 4.7120793794465 0.7936034369254998 23.135383332639496
O 3.2094745994465 3.6310878619255 11.0606624976395
O 3.1476782594465 3.5982851669255 23.134893022639496
O 0.0221056505535001 1.8510391430745 1.0445991673605
O -0.0396906894464999 1.8182364480745 13.1188296923605
O -1.5422954694465 4.655720873074499 1.0441088573605
O -1.6040918094465 4.6229181780745 13.1183393823605
O 3.2331950655535 1.8038222630745 1.0606050473605
O 3.1713987255535003 1.7710195680745 13.1348355723605
O 1.6687939455535 4.6085039930745 1.0601147373605
O 1.6069976055535 4.5757012980745 13.1343452623605
O -0.015449085 -0.00820067375 3.01855763125
O -0.077245425 -0.04100336875 15.09278815625
O 4.842328625 2.70204729625 3.0500790812500003
O 4.780532285 2.66924460125 15.12430960625
O 3.19564033 -0.05541755375 3.03456351125
O 3.13384399 -0.08822024875 15.10879403625
O 1.63123921 2.74926417625 3.03407320125
O 1.5694428699999998 2.71646148125 15.10830372625
O -0.046347255 -0.02460202125 9.05567289375
O -0.108143595 -0.05740471625 21.12990341875
O 4.811430455 2.68564594875 9.08719434375
O 4.749634115 2.65284325375 21.16142486875
O 3.16474216 -0.07181890125 9.07167877375
O 3.10294582 -0.10462159625 21.14590929875
O 1.60034104 2.73286282875 9.07118846375
O 1.5385447 2.70006013375 21.14541898875
