80   
   
Ga 1.6775464043 7.4707849796199985 6.52243937749
Ga 6.785000229300001 7.436419179619999 6.49572688249
Ga 3.53230882622 1.2877516098399997 1.82914424831
Ga 8.63976265122 1.2533858098399997 1.80243175331
Ga 0.99042702 3.0775542988199995 1.83882511187
Ga 6.097880845 3.0431884988199998 1.81211261687
Al 4.219428210520001 5.68098229064 6.51275851393
Al 9.32688203552 5.64661649064 6.486046018929999
Ga 0.952818788795 5.76802585422 -0.016753826865
Ga 6.060272613795 5.73366005422 -0.043466321865
Ga 4.237749716205 2.98277313078 4.667870461865
Ga 9.345203541205 2.94840733078 4.641157966865
Ga 1.6732332019450002 1.38529246062 4.684574583845
Ga 6.780687026945 1.35092666062 4.657862088845
Ga 3.5662863830550005 7.385145114379998 9.358590251155
Ga 8.673740208055001 7.350779314379999 9.331877756155
Ga 0.9087135457200002 0.27710586171 9.37762260354
Ga 6.01616737072 0.24274006171 9.35091010854
Ga 4.33070813712 8.493292436109998 4.64675813506
Ga 9.438161962120002 8.458926636109998 4.62004564006
Ga 1.7511800030200002 4.64932332051 4.66812016936
Ga 6.858633828020001 4.61495752051 4.64140767436
Ga 3.4882416798200007 4.12107497731 9.35626056924
Ga 8.59569550482 4.08670917731 9.329548074240002
Ga 3.5463367150650003 1.36964423926 7.370387264035
Ga 8.653790540065001 1.33527843926 7.343674769035
Ga 1.672329709855 7.392427296399998 2.671765037765
Ga 6.779783534855 7.358061496399999 2.645052542765
Ga 4.215149742315 5.74303013526 2.6617930546849995
Ga 9.322603567315 5.708664335259999 2.6350805596849995
Ga 1.0035166826050002 3.0190414004 7.380359247115
Ga 6.110970507605002 2.9846756004 7.353646752115
O 4.317022120025 5.85975414548 8.352781949315
O 9.424475945025 5.82538834548 8.326069454315
O 0.912021933855 2.90648077126 3.680484570885
O 6.019475758855 2.87211497126 3.653772075885
O 3.4562493056750005 1.46769190188 3.670075908525
O 8.563703130675002 1.43332610188 3.643363413525
O 1.7727947482050002 7.29854301486 8.363190611675
O 6.880248573205001 7.264177214859998 8.336478116675
O 2.712731239705 0.07328873752 5.893410503195
O 7.820185064705 0.03892293752 5.866698008195
O 2.490466643935 8.682577003699999 1.180854567405
O 7.597920468935001 8.648211203699999 1.154142072405
O 5.015929490955 4.43567757752 1.176268295445
O 10.123383315955 4.40131177752 1.149555800445
O 0.187268392685 4.320188163699999 5.897996775155
O 5.294722217685 4.2858223636999995 5.871284280155
O 0.131029456835 7.259071502619999 1.120989904585
O 5.238483281834999 7.22470570262 1.094277409585
O 5.071385209525 1.4964800211599998 5.803002394815
O 10.178839034525 1.4621142211599998 5.776289899815
O 2.5266887245850005 2.86506612662 5.813556616935
O 7.634142549585 2.83070032662 5.786844121934999
O 2.675725941775 5.89048539716 1.110435682465
O 7.783179766774999 5.85611959716 1.083723187465
O 5.044639588840001 7.306539346969998 5.95096940651
O 10.15209341384 7.272173546969999 5.92425691151
O 0.15943941424 1.44967988887 1.29235253169
O 5.266893239240001 1.41531408887 1.26564003669
O 2.72313498054 2.92430572217 1.27590313929
O 7.83058880554 2.88993992217 1.24919064429
O 2.48094402254 5.83191351367 5.96741879891
O 7.588397847540001 5.79754771367 5.94070630391
O 1.896151119905 1.4964096984400002 8.120777385604999
O 7.003604944905 1.4620438984400002 8.094064890604999
O 3.330249575655 7.268764734439999 3.405318531795
O 8.437703400655002 7.23439893444 3.378606036795
O 0.7671404007550001 5.881892356039999 3.421585974495
O 5.874594225755001 5.847526556039999 3.394873479495
O 4.459260294805 2.88328207684 8.104509942905
O 9.566714119805 2.84891627684 8.077797447904999
O 4.31394600884 -0.00227973231 8.430493539209998
O 9.421399833840002 -0.03664553231 8.403781044209998
O 0.9157833601600002 8.76878958931 3.73426165579
O 6.023237185159999 8.73442378931 3.70754916079
O 3.440307980940001 4.38148463529 3.72996650335
O 8.54776180594 4.34711883529 3.70325400835
O 1.7894213880600005 4.38502522171 8.43478869165
O 6.89687521306 4.35065942171 8.40807619665
