40   
   
In 0.0030277694064158 3.825753989202489 15.101083649019536
In 1.6410020016523073 2.8393063868306894 2.6180478792419444
In 3.2719877916523075 0.0025154468306893 2.6287947892419443
In -1.6317037583476928 2.8449920718306894 2.6180170292419445
In 3.276283852691277 1.8836130277168224 -0.0071234732614816
In 3.274668423941277 1.9020655739668224 5.907595271738519
In -0.0012564445976927 0.0143519805806893 4.600336854241945
In -1.6295616023087227 4.750693047716823 7.868390426738518
In 0.001424187691277 1.9139021077168223 7.87913733673852
In 1.6431441576912773 4.745007362716822 7.86842127673852
In 0.0041047219064158 3.8134522917024887 11.157937819019535
Ga 3.273591471441277 1.9143672714668225 9.85074110173852
In 4.907257795656416 0.9771265154524882 13.140288494019538
In 3.276272005656416 3.8139174554524886 13.129541584019538
In 1.6345520356564158 0.9828122004524882 13.140257644019538
In -0.0028718733476927 0.0328045268306893 10.515055599241943
O 4.845098984841278 0.9782030848668228 1.3369949921385185
O 3.279352626441278 3.7015223872668233 1.3266779585385189
O 1.7033014552412773 0.9836613424668228 1.3369653761385183
O -0.0039272867976927 0.0448601903806893 14.379338512641944
O 0.0067755641064158 3.782944081902488 1.3789361606195374
O 1.7031609105412773 2.8382297605668234 14.421341381338522
O 3.2689072689412773 0.1149104581668225 14.431658414938521
O 4.844958440141276 2.832771502966823 14.421370997338519
O 1.574535282806416 2.889589802602488 6.587337539419536
O 0.008788924406416 5.612909105002488 6.5770205058195375
O -1.5672622467935842 2.895048060202488 6.587307923419536
O 3.275228439241277 1.8956686912668224 3.8571594401385183
O -0.0018164598976927 0.0207488632806893 6.650772685841945
O -1.5630949814935842 4.700409688302488 3.899100608619537
O 0.0026513769064158 1.9770903859024884 3.9094176422195366
O 1.5787025481064156 4.694951430702488 3.8991302246195367
O -1.6960283211976928 4.80097646398069 11.837680244641945
O 0.0001969004023073 1.8507138863806891 11.848857031041945
O 1.7075856692023077 4.79506335158069 11.837712328641944
O 0.0046647372064158 3.807055409002488 9.107501987419536
O 3.2730314561412768 1.9207641541668223 11.90117693333852
O 4.973724514502307 0.9268430996806892 9.170998833841944
O 3.277499292902307 3.8771056772806896 9.159822047441944
O 1.570110524102307 0.9327562120806894 9.170966749841945
