80   
   
Al 10.720031325455 2.26869e-06 1.187359102915
Al 10.720021095455 3.05256747369 1.187385942915
Al 22.847564120455 5.27869e-06 1.194567487915
Al 22.847553890455 3.05257048369 1.194594327915
Al -0.0749179704549999 -1.53869e-06 4.579881872085
Al -0.0749282004549999 3.05256366631 4.579908712085
Al 12.052614824545 1.47131e-06 4.587090257085
Ga 12.052604594544999 3.05256667631 4.587117097085
Al 4.656259812955 1.52628336619 1.183768330415
In 4.656249582955 4.57884857119 1.1837951704149998
Al 16.783792607955 1.52628637619 1.190976715415
Ga 16.783782377955003 4.57885158119 1.1910035554149998
Al 5.988843312045 1.52628256881 4.583499484585
Ga 5.988833082045 4.57884777381 4.583526324585
Al 18.116376107045 1.52628557881 4.590707869585
In 18.116365877045 4.57885078381 4.590734709585
Ga 9.182310229755 1.52628356983 3.957458028525
In 9.182299999755 4.57884877483 3.957484868525
Al 21.309843024755 1.52628657983 3.964666413525
Al 21.309832794755003 4.57885178483 3.964693253525
Al 1.462792895245 1.5262823651700002 1.809809786475
Al 1.462782665245 4.57884757017 1.809836626475
Al 13.590325690245 1.52628537517 1.817018171475
In 13.590315460245 4.57885058017 1.817045011475
Al 3.1185489472550008 -5.3767e-07 3.953840416025
Al 3.1185387172550008 3.05256466733 3.953867256025
In 15.246081742255 2.47233e-06 3.961048801025
In 15.246071512255002 3.05256767733 3.961075641025
Ga 7.526564407745002 1.26767e-06 1.813400558975
Ga 7.526554177745002 3.05256647267 1.813427398975
Al 19.654097202745 4.27767e-06 1.820608943975
Ga 19.654086972745 3.05256948267 1.820635783975
O 9.381652326185002 1.49291e-06 2.523095576225
O 9.381642096185 3.05256669791 2.523122416225
O 21.509185121185 4.50291e-06 2.530303961225
O 21.509174891184998 3.05256970791 2.530330801225
O 1.263461028815 -7.6291e-07 3.244145398775
O 1.263450798815 3.05256444209 3.244172238775
O 13.390993823815002 2.24709e-06 3.2513537837749995
O 13.390983593815 3.05256745209 3.251380623775
O 3.3178808136850004 1.52628259041 2.519504803725
O 3.3178705836850004 4.57884779541 2.519531643725
O 15.445413608684998 1.52628560041 2.526713188725
O 15.445403378684999 4.57885080541 2.526740028725
O 7.327222311315001 1.52628334459 3.247763011275
O 7.327212081315001 4.57884854959 3.2477898512749994
O 19.454755106315 1.52628635459 3.254971396275
O 19.454744876315 4.57885155959 3.254998236275
O 8.807136582225 4.8415e-07 5.132448006575
O 8.807126352224998 3.05256568915 5.132474846575
O 20.934669377225 3.49415e-06 5.139656391575
O 20.934659147225 3.05256869915 5.139683231575
O 1.8379767727750005 2.4585e-07 0.634792968425
O 1.8379665427750005 3.05256545085 0.634819808425
O 13.965509567775 3.25585e-06 0.642001353425
O 13.965499337775 3.0525684608500003 0.642028193425
O 2.7433650697250003 1.52628158165 5.128857234075
O 2.7433548397250003 4.57884678665 5.128884074075
O 14.870897864724999 1.52628459165 5.136065619075
O 14.870887634724996 4.57884979665 5.136092459075
O 7.901738055275 1.52628435335 0.638410580925
O 7.901727825275001 4.57884955835 0.638437420925
O 20.029270850275 1.52628736335 0.645618965925
O 20.029260620275 4.57885256835 0.645645805925
O -1.05293262774 1.5262809205 4.27974646791
O -1.05294285774 4.5788461255 4.27977330791
O 11.07460016726 1.5262839305 4.28695485291
O 11.07458993726 4.5788491355 4.28698169291
O 11.69803575274 1.5262850145 1.48752134709
O 11.69802552274 4.5788502195000005 1.48754818709
O 23.82556854774 1.5262880245 1.49472973209
O 23.82555831774 4.5788532295 1.49475657209
O 5.010838884760001 -1.77e-07 4.28333724041
O 5.010828654760001 3.052565028 4.28336408041
O 17.138371679759995 2.833e-06 4.29054562541
O 17.138361449759998 3.0525680380000004 4.29057246541
O 5.63427447024 9.07e-07 1.48390373459
O 5.63426424024 3.052566112 1.48393057459
O 17.76180726524 3.917e-06 1.49111211959
O 17.76179703524 3.052569122 1.49113895959
