40   
   
Ga 4.585453656027508 0.8315745513567258 2.6867668875773973
In 3.0846084810275083 3.4978949563567254 2.6769279375773976
In 1.526747866027509 0.8663720963567257 2.574485077577397
Ga 1.516327933972491 4.4014554636432734 12.6478614724226
Ga -1.5423778560275088 4.436253008643273 12.5355796624226
Ga -0.0415326810275089 1.769932603643274 12.5454186124226
Al 0.0 0.0 0.0
Ga -0.02724203625 0.00179319 5.63154781125
Ga -0.04540339375 0.00298865 9.38591301875
Al 0.0168220122775087 3.533290231356726 4.441828731327398
In 3.026253787722491 1.734537328643274 10.7805178186726
Ga 3.022383075 -0.032406625 7.6210122249999985
In -1.53716789 2.668711325 7.498891465
In 1.5215378999999998 2.63391378 7.611173274999999
Ga -0.0104200239724913 3.5350834213567257 10.073376542577396
Ga 3.0534958239724914 1.732744138643274 5.1489700074226015
O -1.54880890275 4.4686895224 1.29588491375
O 0.0120700792499999 1.6957163011999998 1.30611742175
O 1.6322451188500002 4.4325000756 1.41265799615
O 1.41083068115 0.8353274844 13.80968855385
O 4.59188470275 0.7991380376 13.92646163625
O 3.03100572075 3.5721112588 13.91622912825
O -0.0282181543224913 3.536254972156726 13.752654445927396
O 3.071293954322491 1.7315725878432742 1.4696921040726023
O 4.506377271222491 0.8687928510432743 6.464532821172601
O 3.065565903222492 3.4284604398432745 6.455087429172601
O 1.5700197128224913 0.9021984942432744 6.3567422835726015
O 1.473056087177509 4.365629065756727 8.865604266427399
O -1.4633014712224912 4.399034708956727 8.757813728827397
O -0.0224901032224911 1.839367120156726 8.7672591208274
O -0.01779813035 0.0011715508 3.67927790335
O -0.05484729965 0.0036102892 11.33818292665
O 0.0073781063775087 3.5339118705567256 6.394098639227398
O 3.035697693622491 1.733915689443274 8.828247910772602
O 1.600614376722491 2.5966954262432744 3.8334071936726017
O 3.041425744722491 0.0370278374432742 3.8428525856726017
O 4.53697193512249 2.5632897830432744 3.9411977312726014
O -1.4938961351224913 2.704537776956726 11.281148818727397
O 1.4424614232775086 2.6711321337567258 11.388939356327395
O 0.0016500552775085 5.230799722556725 11.379493964327395
