80   
   
In 1.80048660941 8.14897744986 7.03072723759
In 7.41061705441 8.144009139860001 6.99687826759
In 3.87319533399 1.42745985126 1.97124383879
In 9.48332577899 1.42249154126 1.93739486879
In 1.0697676992300005 3.3561917703 1.97849485487
In 6.67989814423 3.3512234602999995 1.94464588487
In 4.60391424417 6.220245530820001 7.02347622151
In 10.21404468917 6.215277220820001 6.98962725151
In 1.009547670115 6.27371972567 -0.03756957231
In 6.619678115115001 6.268751415670001 -0.07141854231
In 4.639698944885001 3.2826537243300007 5.03620602731
In 10.249829389885 3.2776854143300005 5.00235705731
In 1.833142058305 1.53053595565 5.06194198895
In 7.443272503304998 1.52556764565 5.02809301895
Ga 3.878123156695001 8.07676097435 10.09744223605
In 9.488253601695 8.071792664349998 10.06359326605
In 1.00470170226 0.33611428104 10.14346374147
In 6.61483214726 0.33114597104 10.10961477147
In 4.70643947554 9.271080802 4.99559898799
Al 10.31656992054 9.266112492 4.96175001799
In 1.89780723024 5.0777777482 5.03359439539
In 7.50793767524 5.0728094382 4.99974542539
In 3.81333394756 4.529417334840001 10.10546833407
In 9.42346439256 4.52444902484 10.071619364070001
In 3.8930207716150007 1.53380664955 7.96580346232
In 9.503151216615 1.52883833955 7.931954492320002
In 1.791824519785 8.05179687797 2.86510221266
Al 7.4019549647849985 8.046828567969998 2.83125324266
In 4.595381864465 6.27563903925 2.85708498122
In 10.205512309464998 6.27067072925 2.82323601122
In 1.089463426935 3.3099644882700003 7.97382069376
In 6.699593871935 3.30499617827 7.93997172376
O 4.711604244735 6.420859672030001 9.013449582740002
O 10.321734689735 6.415891362030001 8.97960061274
O 0.986388989865 3.17553963325 3.97153461948
O 6.596519434865 3.1705713232500004 3.93768564948
O 3.790140899425 1.6282429150100002 3.962368065
O 9.400271344425 1.6232746050100002 3.928519095
O 1.9078523351750003 7.96815639027 9.02261613722
O 7.517982780175 7.963188080269998 8.98876716722
O 2.9844011448550005 0.11524542635 6.3729086419400005
O 8.594531589854999 0.11027711635 6.33905967194
O 2.680846268945 9.45426628149 1.24720073772
O 8.290976713945001 9.449297971490001 1.21335176772
O 5.4820039801050005 4.85548795685 1.25335849044
O 11.092134425105002 4.8505196468500005 1.2195095204400002
O 0.183243433695 4.71402375099 6.36675088922
O 5.793373878695 4.70905544099 6.33290191922
O 0.098360588765 7.892259992969999 1.1893389892
O 5.708491033764999 7.887291682969998 1.1554900192
O 5.565894527435001 1.67643693919 6.268198426140001
O 11.176024972435 1.67146862919 6.23434945614
O 2.762077762915 3.1474466172700004 6.2777480883
O 8.372208207915001 3.14247830727 6.2438991183
O 2.902177353285 6.421250314890001 1.17978932704
O 8.512307798285 6.416282004890001 1.14594035704
O 5.49938389579 7.990119799619999 6.40966901432
O 11.10951434079 7.98515148962 6.37582004432
O 0.16697985281 1.58030853086 1.3933338252000005
O 5.77711029781 1.57534022086 1.3594848552
O 2.9734232432100005 3.19892397926 1.3682683020000002
O 8.583553688209998 3.19395566926 1.3344193320000002
O 2.69294050539 6.3715043512200005 6.434734537520001
O 8.303070950390001 6.366536041220001 6.4008855675200005
O 2.080343366145 1.6634057771700002 8.77884705245
O 7.690473811145 1.6584374671700002 8.744998082449998
O 3.614300864055001 7.930243660189999 3.65745677019
O 9.224431309055 7.925275350189998 3.62360780019
O 0.8079385423550001 6.40698701199 3.68204340879
O 6.418068987355 6.40201870199 3.64819443879
O 4.886705687845001 3.18666242537 8.75426041385
O 10.496836132845 3.1816941153700005 8.72041144385
O 4.74589389889 0.05121350486 9.11632736562
O 10.35602434389 0.04624519486 9.08247839562
O 0.95296759611 9.54589872914 4.01090730538
O 6.563098041109999 9.54093041914 3.97705833538
O 3.75399559735 4.79454632418 4.017831273460001
O 9.36412604235 4.78957801418 3.98398230346
O 1.94486589765 4.80256590982 9.10940339754
O 7.554996342650002 4.79759759982 9.07555442754
