40   
   
Al 0.0543333893994877 3.339432280702099 13.749633851098023
Al 1.4685752068520015 2.520781864899289 2.389764849466554
Al 2.9263092668520017 -0.0059809251007115 2.3787860394665543
Al -1.4484673081479982 2.5217272148992884 2.400973249466554
Al 2.9175673424985105 1.6832480431486123 -0.0076253268145814
Al 0.0162168156020017 -0.0088122563507115 4.182490233216553
In -1.429408977501489 4.195849458148612 7.184545058185417
In 0.0283250824985106 1.6690866681486125 7.173566248185417
In 1.4876335374985106 4.194904108148612 7.173336658185417
Al 0.0195830706494877 3.358315686952099 4.787154882348027
Al 0.0404332618994877 3.346985643202099 10.164642263598026
Al 2.9523176612485105 1.6643646368986122 8.954853641935417
Al 4.422159900649488 0.815500821952099 11.934950847348023
Al 2.964425840649488 3.342263611952099 11.945929657348026
Al 1.5051173856494875 0.816446171952099 11.946159247348026
Al 0.0370670068520017 -0.0201423001007115 9.559977614466554
O 4.32222188984851 0.8718132950986124 1.2041719057354183
O 2.9227971922485096 3.2975055734986123 1.2147115633354186
O 1.5218610754485102 0.8727208310986123 1.2149319697354186
O 0.0506891318020017 -0.0275445953507115 13.073269370216554
O 0.0059609456994877 3.365717982202099 1.2738631265980267
O 1.5685133051485105 2.464469341198612 13.120543790635418
O 2.96793800274851 0.0387770627986124 13.110004133035421
O 4.36887411954851 2.463561805198612 13.109783726635417
O 1.424237617999488 2.546880938902099 5.998952114898025
O 0.024812920399488 4.972573217302099 6.009491772498027
O -1.376123196400512 2.5477884749020987 6.009712178898027
O 2.9311894674485104 1.6758457478986124 3.5056664289354185
O 0.0234448819020017 -0.0127400048507115 6.046685858716555
O -1.3850714767005123 4.169750435002098 3.5753576497980264
O 0.0143532208994879 1.7440581566020992 3.5648179921980265
O 1.4152893376994875 4.168842899002097 3.5645975857980265
O -1.4737465657979982 4.221948531849288 10.793732467016554
O 0.0422968566020016 1.5941152302492885 10.782314504616554
O 1.5599776498020022 4.220965367849288 10.782075731016553
O 0.0332051955994877 3.350913391702099 8.300446638098027
O 2.95954572754851 1.6604368883986125 10.819049267435416
O 4.466497489502001 0.7894017479492884 8.325763581916554
O 2.9504540671020014 3.417235049549289 8.337181544316556
O 1.4327732739020016 0.7903849119492885 8.337420317916555
